/*---------------------------------------------------------------------------*\
  =========                 |
  \\      /  F ield         | OpenFOAM: The Open Source CFD Toolbox
   \\    /   O peration     | Website:  https://openfoam.org
    \\  /    A nd           | Version:  11
     \\/     M anipulation  |
\*---------------------------------------------------------------------------*/
Build  : 11-e1fc8c682ae6
Exec   : foamRun
Date   : Mar 06 2026
Time   : 22:20:15
Host   : "DESKTOP-LUE6S0N"
PID    : 1750
I/O    : uncollated
Case   : /home/pika/OpenFOAM/pika-11/run/buoyantCavity
nProcs : 1
sigFpe : Enabling floating point exception trapping (FOAM_SIGFPE).
fileModificationChecking : Monitoring run-time modified files using timeStampMaster (fileModificationSkew 10)
allowSystemOperations : Allowing user-supplied system call operations

// * * * * * * * * * * * * * * * * * * * * * * * * * * * * * * * * * * * * * //
Create time

Create mesh for time = 0

Selecting solver fluid
Selecting thermodynamics package 
{
    type            heRhoThermo;
    mixture         pureMixture;
    transport       const;
    thermo          hConst;
    equationOfState perfectGas;
    specie          specie;
    energy          sensibleEnthalpy;
}

Selecting turbulence model type RAS
Selecting RAS turbulence model kOmegaSST
Selecting patchDistMethod meshWave
RAS
{
    model           kOmegaSST;
    turbulence      on;
    printCoeffs     on;
    alphaK1         0.85;
    alphaK2         1;
    alphaOmega1     0.5;
    alphaOmega2     0.856;
    gamma1          0.555556;
    gamma2          0.44;
    beta1           0.075;
    beta2           0.0828;
    betaStar        0.09;
    a1              0.31;
    b1              1;
    c1              10;
    F3              false;
}

No MRF models present

Selecting thermophysical transport type RAS
Selecting default RAS thermophysical transport model unityLewisEddyDiffusivity

PIMPLE: Convergence criteria found
        p_rgh: tolerance 0.0001
        U: tolerance 0.0001
        h: tolerance 0.0001
        "(k|epsilon|omega)": tolerance 0.001


PIMPLE: Operating solver in steady-state mode with 1 outer corrector
PIMPLE: Operating solver in SIMPLE mode



Starting time loop

Time = 1s

DILUPBiCGStab:  Solving for h, Initial residual = 1, Final residual = 0.00168586, No Iterations 1
GAMG:  Solving for p_rgh, Initial residual = 0.991298, Final residual = 0.00889017, No Iterations 27
time step continuity errors : sum local = 0.000126138, global = 6.02897e-19, cumulative = 6.02897e-19
DILUPBiCGStab:  Solving for omega, Initial residual = 0.132775, Final residual = 0.00102775, No Iterations 1
DILUPBiCGStab:  Solving for k, Initial residual = 1, Final residual = 0.0132666, No Iterations 1
ExecutionTime = 2.39219 s  ClockTime = 3 s

Time = 2s

DILUPBiCGStab:  Solving for h, Initial residual = 0.613829, Final residual = 0.000277129, No Iterations 1
GAMG:  Solving for p_rgh, Initial residual = 0.959756, Final residual = 0.000546661, No Iterations 1
time step continuity errors : sum local = 0.0329818, global = 6.29739e-17, cumulative = 6.35768e-17
DILUPBiCGStab:  Solving for omega, Initial residual = 0.0199074, Final residual = 2.08752e-05, No Iterations 1
DILUPBiCGStab:  Solving for k, Initial residual = 0.30899, Final residual = 0.000414202, No Iterations 1
ExecutionTime = 2.84727 s  ClockTime = 3 s

Time = 3s

DILUPBiCGStab:  Solving for h, Initial residual = 0.0306191, Final residual = 3.18218e-05, No Iterations 1
GAMG:  Solving for p_rgh, Initial residual = 0.272699, Final residual = 0.000361295, No Iterations 1
time step continuity errors : sum local = 0.0568009, global = -7.73076e-17, cumulative = -1.37307e-17
DILUPBiCGStab:  Solving for omega, Initial residual = 0.0175707, Final residual = 3.40079e-05, No Iterations 1
DILUPBiCGStab:  Solving for k, Initial residual = 0.164879, Final residual = 0.000617508, No Iterations 1
ExecutionTime = 3.34841 s  ClockTime = 4 s

Time = 4s

DILUPBiCGStab:  Solving for h, Initial residual = 0.0156948, Final residual = 5.14119e-05, No Iterations 1
GAMG:  Solving for p_rgh, Initial residual = 0.0809703, Final residual = 0.000334561, No Iterations 1
time step continuity errors : sum local = 0.0643368, global = 9.96095e-17, cumulative = 8.58787e-17
DILUPBiCGStab:  Solving for omega, Initial residual = 0.00664091, Final residual = 3.11661e-05, No Iterations 1
DILUPBiCGStab:  Solving for k, Initial residual = 0.0806906, Final residual = 0.000422382, No Iterations 1
ExecutionTime = 4.51202 s  ClockTime = 5 s

Time = 5s

DILUPBiCGStab:  Solving for h, Initial residual = 0.0107803, Final residual = 4.23739e-05, No Iterations 1
GAMG:  Solving for p_rgh, Initial residual = 0.0335335, Final residual = 0.000195395, No Iterations 2
time step continuity errors : sum local = 0.0403186, global = 2.38713e-17, cumulative = 1.0975e-16
DILUPBiCGStab:  Solving for omega, Initial residual = 0.00339395, Final residual = 1.97988e-05, No Iterations 1
DILUPBiCGStab:  Solving for k, Initial residual = 0.0449423, Final residual = 0.000345463, No Iterations 1
ExecutionTime = 5.38509 s  ClockTime = 6 s

Time = 6s

DILUPBiCGStab:  Solving for h, Initial residual = 0.00807559, Final residual = 3.24867e-05, No Iterations 1
GAMG:  Solving for p_rgh, Initial residual = 0.029214, Final residual = 0.000218316, No Iterations 1
time step continuity errors : sum local = 0.0473669, global = -7.10337e-19, cumulative = 1.0904e-16
DILUPBiCGStab:  Solving for omega, Initial residual = 0.00121105, Final residual = 1.17831e-05, No Iterations 1
DILUPBiCGStab:  Solving for k, Initial residual = 0.0214377, Final residual = 0.00022796, No Iterations 1
ExecutionTime = 6.05283 s  ClockTime = 6 s

Time = 7s

DILUPBiCGStab:  Solving for h, Initial residual = 0.00650644, Final residual = 2.70273e-05, No Iterations 1
GAMG:  Solving for p_rgh, Initial residual = 0.0276628, Final residual = 0.000248713, No Iterations 1
time step continuity errors : sum local = 0.0557872, global = 3.75127e-17, cumulative = 1.46552e-16
DILUPBiCGStab:  Solving for omega, Initial residual = 0.00043138, Final residual = 7.45727e-06, No Iterations 1
DILUPBiCGStab:  Solving for k, Initial residual = 0.0113941, Final residual = 0.000153221, No Iterations 1
ExecutionTime = 6.6551 s  ClockTime = 7 s

Time = 8s

DILUPBiCGStab:  Solving for h, Initial residual = 0.00549632, Final residual = 2.32157e-05, No Iterations 1
GAMG:  Solving for p_rgh, Initial residual = 0.0249289, Final residual = 0.000247277, No Iterations 1
time step continuity errors : sum local = 0.0570284, global = 2.08923e-19, cumulative = 1.46761e-16
DILUPBiCGStab:  Solving for omega, Initial residual = 0.000281017, Final residual = 5.95911e-06, No Iterations 1
DILUPBiCGStab:  Solving for k, Initial residual = 0.00673074, Final residual = 0.000103386, No Iterations 1
ExecutionTime = 7.4861 s  ClockTime = 8 s

Time = 9s

DILUPBiCGStab:  Solving for h, Initial residual = 0.00480027, Final residual = 2.11315e-05, No Iterations 1
GAMG:  Solving for p_rgh, Initial residual = 0.0238985, Final residual = 0.000224855, No Iterations 1
time step continuity errors : sum local = 0.0528832, global = -3.17366e-17, cumulative = 1.15025e-16
DILUPBiCGStab:  Solving for omega, Initial residual = 0.000202957, Final residual = 4.25886e-06, No Iterations 1
DILUPBiCGStab:  Solving for k, Initial residual = 0.00468857, Final residual = 7.29626e-05, No Iterations 1
ExecutionTime = 8.00861 s  ClockTime = 8 s

Time = 10s

DILUPBiCGStab:  Solving for h, Initial residual = 0.00430723, Final residual = 1.91655e-05, No Iterations 1
GAMG:  Solving for p_rgh, Initial residual = 0.0247233, Final residual = 0.000205303, No Iterations 1
time step continuity errors : sum local = 0.0485855, global = -6.0391e-17, cumulative = 5.46337e-17
DILUPBiCGStab:  Solving for omega, Initial residual = 0.000168563, Final residual = 3.46024e-06, No Iterations 1
DILUPBiCGStab:  Solving for k, Initial residual = 0.00383536, Final residual = 5.97586e-05, No Iterations 1
ExecutionTime = 8.59114 s  ClockTime = 9 s

Time = 11s

DILUPBiCGStab:  Solving for h, Initial residual = 0.00395914, Final residual = 1.74769e-05, No Iterations 1
GAMG:  Solving for p_rgh, Initial residual = 0.0238126, Final residual = 0.000196273, No Iterations 1
time step continuity errors : sum local = 0.0466332, global = 5.79134e-17, cumulative = 1.12547e-16
DILUPBiCGStab:  Solving for omega, Initial residual = 0.000165967, Final residual = 3.23786e-06, No Iterations 1
DILUPBiCGStab:  Solving for k, Initial residual = 0.00344388, Final residual = 5.06157e-05, No Iterations 1
ExecutionTime = 9.33632 s  ClockTime = 10 s

Time = 12s

DILUPBiCGStab:  Solving for h, Initial residual = 0.00371437, Final residual = 1.59103e-05, No Iterations 1
GAMG:  Solving for p_rgh, Initial residual = 0.023433, Final residual = 0.000208432, No Iterations 1
time step continuity errors : sum local = 0.0491918, global = 2.66598e-17, cumulative = 1.39207e-16
DILUPBiCGStab:  Solving for omega, Initial residual = 0.000164317, Final residual = 3.13046e-06, No Iterations 1
DILUPBiCGStab:  Solving for k, Initial residual = 0.00329251, Final residual = 4.64468e-05, No Iterations 1
ExecutionTime = 9.95129 s  ClockTime = 10 s

Time = 13s

DILUPBiCGStab:  Solving for h, Initial residual = 0.00353718, Final residual = 1.50131e-05, No Iterations 1
GAMG:  Solving for p_rgh, Initial residual = 0.024242, Final residual = 0.000239796, No Iterations 1
time step continuity errors : sum local = 0.05552, global = 1.00492e-17, cumulative = 1.49256e-16
DILUPBiCGStab:  Solving for omega, Initial residual = 0.000161794, Final residual = 3.05167e-06, No Iterations 1
DILUPBiCGStab:  Solving for k, Initial residual = 0.00323844, Final residual = 4.58058e-05, No Iterations 1
ExecutionTime = 10.5587 s  ClockTime = 11 s

Time = 14s

DILUPBiCGStab:  Solving for h, Initial residual = 0.00340409, Final residual = 1.39346e-05, No Iterations 1
GAMG:  Solving for p_rgh, Initial residual = 0.0243804, Final residual = 0.000146613, No Iterations 2
time step continuity errors : sum local = 0.0331132, global = -3.08499e-18, cumulative = 1.46171e-16
DILUPBiCGStab:  Solving for omega, Initial residual = 0.000218127, Final residual = 4.06651e-06, No Iterations 1
DILUPBiCGStab:  Solving for k, Initial residual = 0.00321564, Final residual = 4.41391e-05, No Iterations 1
ExecutionTime = 11.2709 s  ClockTime = 12 s

Time = 15s

DILUPBiCGStab:  Solving for h, Initial residual = 0.00316898, Final residual = 1.24267e-05, No Iterations 1
GAMG:  Solving for p_rgh, Initial residual = 0.0233173, Final residual = 0.000159096, No Iterations 1
time step continuity errors : sum local = 0.0354492, global = -6.39058e-20, cumulative = 1.46107e-16
DILUPBiCGStab:  Solving for omega, Initial residual = 0.000167607, Final residual = 2.94364e-06, No Iterations 1
DILUPBiCGStab:  Solving for k, Initial residual = 0.00345402, Final residual = 4.92111e-05, No Iterations 1
ExecutionTime = 11.9575 s  ClockTime = 13 s

Time = 16s

DILUPBiCGStab:  Solving for h, Initial residual = 0.00310431, Final residual = 1.15609e-05, No Iterations 1
GAMG:  Solving for p_rgh, Initial residual = 0.0230031, Final residual = 0.000179058, No Iterations 1
time step continuity errors : sum local = 0.0391248, global = -9.38924e-18, cumulative = 1.36718e-16
DILUPBiCGStab:  Solving for omega, Initial residual = 0.000168787, Final residual = 3.10208e-06, No Iterations 1
DILUPBiCGStab:  Solving for k, Initial residual = 0.00364931, Final residual = 5.13866e-05, No Iterations 1
ExecutionTime = 12.6072 s  ClockTime = 13 s

Time = 17s

DILUPBiCGStab:  Solving for h, Initial residual = 0.00301512, Final residual = 1.13983e-05, No Iterations 1
GAMG:  Solving for p_rgh, Initial residual = 0.0213529, Final residual = 0.000186844, No Iterations 1
time step continuity errors : sum local = 0.0389965, global = 4.12881e-17, cumulative = 1.78006e-16
DILUPBiCGStab:  Solving for omega, Initial residual = 0.000160152, Final residual = 2.76747e-06, No Iterations 1
DILUPBiCGStab:  Solving for k, Initial residual = 0.00382623, Final residual = 5.0551e-05, No Iterations 1
ExecutionTime = 13.2097 s  ClockTime = 14 s

Time = 18s

DILUPBiCGStab:  Solving for h, Initial residual = 0.00295126, Final residual = 1.07242e-05, No Iterations 1
GAMG:  Solving for p_rgh, Initial residual = 0.0198924, Final residual = 0.000173257, No Iterations 1
time step continuity errors : sum local = 0.0343649, global = -5.36686e-18, cumulative = 1.72639e-16
DILUPBiCGStab:  Solving for omega, Initial residual = 0.000164817, Final residual = 2.68041e-06, No Iterations 1
DILUPBiCGStab:  Solving for k, Initial residual = 0.00406967, Final residual = 4.8002e-05, No Iterations 1
ExecutionTime = 13.8593 s  ClockTime = 15 s

Time = 19s

DILUPBiCGStab:  Solving for h, Initial residual = 0.00292062, Final residual = 9.98509e-06, No Iterations 1
GAMG:  Solving for p_rgh, Initial residual = 0.0189968, Final residual = 0.000154821, No Iterations 1
time step continuity errors : sum local = 0.0293271, global = 1.59064e-17, cumulative = 1.88546e-16
DILUPBiCGStab:  Solving for omega, Initial residual = 0.000179223, Final residual = 2.8825e-06, No Iterations 1
DILUPBiCGStab:  Solving for k, Initial residual = 0.00433468, Final residual = 4.47868e-05, No Iterations 1
ExecutionTime = 14.4649 s  ClockTime = 15 s

Time = 20s

DILUPBiCGStab:  Solving for h, Initial residual = 0.00291646, Final residual = 9.40142e-06, No Iterations 1
GAMG:  Solving for p_rgh, Initial residual = 0.0184048, Final residual = 0.000164244, No Iterations 1
time step continuity errors : sum local = 0.029958, global = 2.51211e-17, cumulative = 2.13667e-16
DILUPBiCGStab:  Solving for omega, Initial residual = 0.000184165, Final residual = 2.98941e-06, No Iterations 1
DILUPBiCGStab:  Solving for k, Initial residual = 0.0046257, Final residual = 4.27609e-05, No Iterations 1
ExecutionTime = 15.2011 s  ClockTime = 16 s

Time = 21s

DILUPBiCGStab:  Solving for h, Initial residual = 0.00292831, Final residual = 9.19922e-06, No Iterations 1
GAMG:  Solving for p_rgh, Initial residual = 0.0177807, Final residual = 0.000108142, No Iterations 2
time step continuity errors : sum local = 0.0190093, global = -3.12229e-17, cumulative = 1.82444e-16
DILUPBiCGStab:  Solving for omega, Initial residual = 0.000146501, Final residual = 2.40464e-06, No Iterations 1
DILUPBiCGStab:  Solving for k, Initial residual = 0.00497423, Final residual = 4.45461e-05, No Iterations 1
ExecutionTime = 16.0455 s  ClockTime = 17 s

Time = 22s

DILUPBiCGStab:  Solving for h, Initial residual = 0.0028588, Final residual = 9.22288e-06, No Iterations 1
GAMG:  Solving for p_rgh, Initial residual = 0.0161788, Final residual = 0.000143181, No Iterations 1
time step continuity errors : sum local = 0.0243603, global = -4.63071e-18, cumulative = 1.77813e-16
DILUPBiCGStab:  Solving for omega, Initial residual = 0.000160801, Final residual = 2.50996e-06, No Iterations 1
DILUPBiCGStab:  Solving for k, Initial residual = 0.00524892, Final residual = 4.73187e-05, No Iterations 1
ExecutionTime = 17.1974 s  ClockTime = 18 s

Time = 23s

DILUPBiCGStab:  Solving for h, Initial residual = 0.00288828, Final residual = 9.208e-06, No Iterations 1
GAMG:  Solving for p_rgh, Initial residual = 0.0155806, Final residual = 7.89919e-05, No Iterations 2
time step continuity errors : sum local = 0.0129874, global = 1.7198e-17, cumulative = 1.95011e-16
DILUPBiCGStab:  Solving for omega, Initial residual = 0.000144661, Final residual = 2.38264e-06, No Iterations 1
DILUPBiCGStab:  Solving for k, Initial residual = 0.00559662, Final residual = 4.92059e-05, No Iterations 1
ExecutionTime = 18.126 s  ClockTime = 19 s

Time = 24s

DILUPBiCGStab:  Solving for h, Initial residual = 0.00281712, Final residual = 9.47543e-06, No Iterations 1
GAMG:  Solving for p_rgh, Initial residual = 0.0142191, Final residual = 9.90048e-05, No Iterations 1
time step continuity errors : sum local = 0.0158411, global = 7.6392e-18, cumulative = 2.0265e-16
DILUPBiCGStab:  Solving for omega, Initial residual = 0.000128356, Final residual = 2.14499e-06, No Iterations 1
DILUPBiCGStab:  Solving for k, Initial residual = 0.00580061, Final residual = 5.02478e-05, No Iterations 1
ExecutionTime = 18.9578 s  ClockTime = 20 s

Time = 25s

DILUPBiCGStab:  Solving for h, Initial residual = 0.00283169, Final residual = 9.64765e-06, No Iterations 1
GAMG:  Solving for p_rgh, Initial residual = 0.0138286, Final residual = 0.000112838, No Iterations 1
time step continuity errors : sum local = 0.0175895, global = 2.81136e-17, cumulative = 2.30764e-16
DILUPBiCGStab:  Solving for omega, Initial residual = 0.000124595, Final residual = 2.30953e-06, No Iterations 1
DILUPBiCGStab:  Solving for k, Initial residual = 0.00589151, Final residual = 5.09425e-05, No Iterations 1
ExecutionTime = 19.858 s  ClockTime = 21 s

Time = 26s

DILUPBiCGStab:  Solving for h, Initial residual = 0.00282304, Final residual = 9.73952e-06, No Iterations 1
GAMG:  Solving for p_rgh, Initial residual = 0.0131857, Final residual = 7.69554e-05, No Iterations 3
time step continuity errors : sum local = 0.0117375, global = -2.1551e-17, cumulative = 2.09213e-16
DILUPBiCGStab:  Solving for omega, Initial residual = 0.00013105, Final residual = 2.5212e-06, No Iterations 1
DILUPBiCGStab:  Solving for k, Initial residual = 0.00600196, Final residual = 5.79088e-05, No Iterations 1
ExecutionTime = 20.8895 s  ClockTime = 22 s

Time = 27s

DILUPBiCGStab:  Solving for h, Initial residual = 0.00276165, Final residual = 9.90985e-06, No Iterations 1
GAMG:  Solving for p_rgh, Initial residual = 0.0123328, Final residual = 8.67602e-05, No Iterations 1
time step continuity errors : sum local = 0.0128478, global = -3.58364e-18, cumulative = 2.05629e-16
DILUPBiCGStab:  Solving for omega, Initial residual = 0.000122119, Final residual = 2.36007e-06, No Iterations 1
DILUPBiCGStab:  Solving for k, Initial residual = 0.00593627, Final residual = 6.06471e-05, No Iterations 1
ExecutionTime = 21.81 s  ClockTime = 23 s

Time = 28s

DILUPBiCGStab:  Solving for h, Initial residual = 0.00279019, Final residual = 9.99301e-06, No Iterations 1
GAMG:  Solving for p_rgh, Initial residual = 0.012061, Final residual = 0.000101899, No Iterations 2
time step continuity errors : sum local = 0.0146889, global = -4.51838e-17, cumulative = 1.60445e-16
DILUPBiCGStab:  Solving for omega, Initial residual = 0.000143473, Final residual = 2.87446e-06, No Iterations 1
DILUPBiCGStab:  Solving for k, Initial residual = 0.00610791, Final residual = 7.00379e-05, No Iterations 1
ExecutionTime = 22.7199 s  ClockTime = 24 s

Time = 29s

DILUPBiCGStab:  Solving for h, Initial residual = 0.00274368, Final residual = 1.00079e-05, No Iterations 1
GAMG:  Solving for p_rgh, Initial residual = 0.0114606, Final residual = 6.83853e-05, No Iterations 2
time step continuity errors : sum local = 0.00970512, global = 1.35093e-17, cumulative = 1.73955e-16
DILUPBiCGStab:  Solving for omega, Initial residual = 0.000133872, Final residual = 2.72617e-06, No Iterations 1
DILUPBiCGStab:  Solving for k, Initial residual = 0.00606687, Final residual = 6.87111e-05, No Iterations 1
ExecutionTime = 23.5194 s  ClockTime = 24 s

Time = 30s

DILUPBiCGStab:  Solving for h, Initial residual = 0.00276802, Final residual = 1.00602e-05, No Iterations 1
GAMG:  Solving for p_rgh, Initial residual = 0.0111724, Final residual = 6.32532e-05, No Iterations 2
time step continuity errors : sum local = 0.00881742, global = 2.63492e-18, cumulative = 1.7659e-16
DILUPBiCGStab:  Solving for omega, Initial residual = 0.000103424, Final residual = 2.07971e-06, No Iterations 1
DILUPBiCGStab:  Solving for k, Initial residual = 0.00612594, Final residual = 7.32154e-05, No Iterations 1
ExecutionTime = 24.2458 s  ClockTime = 25 s

Time = 31s

DILUPBiCGStab:  Solving for h, Initial residual = 0.00276175, Final residual = 1.02397e-05, No Iterations 1
GAMG:  Solving for p_rgh, Initial residual = 0.0108137, Final residual = 0.000101331, No Iterations 1
time step continuity errors : sum local = 0.0138878, global = -2.4734e-17, cumulative = 1.51856e-16
DILUPBiCGStab:  Solving for omega, Initial residual = 0.000117873, Final residual = 2.53252e-06, No Iterations 1
DILUPBiCGStab:  Solving for k, Initial residual = 0.00621735, Final residual = 8.28458e-05, No Iterations 1
ExecutionTime = 25.2113 s  ClockTime = 26 s

Time = 32s

DILUPBiCGStab:  Solving for h, Initial residual = 0.00280234, Final residual = 1.02721e-05, No Iterations 1
GAMG:  Solving for p_rgh, Initial residual = 0.0106662, Final residual = 6.19871e-05, No Iterations 2
time step continuity errors : sum local = 0.00832527, global = 3.92468e-17, cumulative = 1.91102e-16
DILUPBiCGStab:  Solving for omega, Initial residual = 0.00011759, Final residual = 2.70666e-06, No Iterations 1
DILUPBiCGStab:  Solving for k, Initial residual = 0.00621643, Final residual = 8.31513e-05, No Iterations 1
ExecutionTime = 25.926 s  ClockTime = 27 s

Time = 33s

DILUPBiCGStab:  Solving for h, Initial residual = 0.00276228, Final residual = 1.03146e-05, No Iterations 1
GAMG:  Solving for p_rgh, Initial residual = 0.0101011, Final residual = 9.12931e-05, No Iterations 1
time step continuity errors : sum local = 0.0120027, global = -4.19173e-17, cumulative = 1.49185e-16
DILUPBiCGStab:  Solving for omega, Initial residual = 0.000114086, Final residual = 2.68351e-06, No Iterations 1
DILUPBiCGStab:  Solving for k, Initial residual = 0.00632374, Final residual = 9.49957e-05, No Iterations 1
ExecutionTime = 26.3832 s  ClockTime = 27 s

Time = 34s

DILUPBiCGStab:  Solving for h, Initial residual = 0.00279205, Final residual = 1.03387e-05, No Iterations 1
GAMG:  Solving for p_rgh, Initial residual = 0.00989121, Final residual = 6.69715e-05, No Iterations 2
time step continuity errors : sum local = 0.00865843, global = -2.28279e-17, cumulative = 1.26357e-16
DILUPBiCGStab:  Solving for omega, Initial residual = 0.000133554, Final residual = 3.31356e-06, No Iterations 1
DILUPBiCGStab:  Solving for k, Initial residual = 0.00633277, Final residual = 9.89401e-05, No Iterations 1
ExecutionTime = 26.8849 s  ClockTime = 28 s

Time = 35s

DILUPBiCGStab:  Solving for h, Initial residual = 0.00273094, Final residual = 1.04374e-05, No Iterations 1
GAMG:  Solving for p_rgh, Initial residual = 0.00928404, Final residual = 8.0887e-05, No Iterations 1
time step continuity errors : sum local = 0.0102913, global = 2.46025e-17, cumulative = 1.5096e-16
DILUPBiCGStab:  Solving for omega, Initial residual = 0.000116007, Final residual = 2.92234e-06, No Iterations 1
DILUPBiCGStab:  Solving for k, Initial residual = 0.00634703, Final residual = 0.000103994, No Iterations 1
ExecutionTime = 27.3302 s  ClockTime = 28 s

Time = 36s

DILUPBiCGStab:  Solving for h, Initial residual = 0.00275791, Final residual = 1.04167e-05, No Iterations 1
GAMG:  Solving for p_rgh, Initial residual = 0.00922756, Final residual = 8.85292e-05, No Iterations 1
time step continuity errors : sum local = 0.0111111, global = -3.2796e-17, cumulative = 1.18164e-16
DILUPBiCGStab:  Solving for omega, Initial residual = 0.00011672, Final residual = 2.98875e-06, No Iterations 1
DILUPBiCGStab:  Solving for k, Initial residual = 0.00641356, Final residual = 0.000119006, No Iterations 1
ExecutionTime = 27.8565 s  ClockTime = 29 s

Time = 37s

DILUPBiCGStab:  Solving for h, Initial residual = 0.00277284, Final residual = 1.05567e-05, No Iterations 1
GAMG:  Solving for p_rgh, Initial residual = 0.00900995, Final residual = 6.32163e-05, No Iterations 3
time step continuity errors : sum local = 0.00786298, global = -1.64902e-17, cumulative = 1.01674e-16
DILUPBiCGStab:  Solving for omega, Initial residual = 0.000123794, Final residual = 3.03273e-06, No Iterations 1
DILUPBiCGStab:  Solving for k, Initial residual = 0.00635007, Final residual = 0.000110697, No Iterations 1
ExecutionTime = 28.3602 s  ClockTime = 29 s

Time = 38s

DILUPBiCGStab:  Solving for h, Initial residual = 0.00272239, Final residual = 1.05056e-05, No Iterations 1
GAMG:  Solving for p_rgh, Initial residual = 0.00848683, Final residual = 7.14412e-05, No Iterations 1
time step continuity errors : sum local = 0.00870055, global = -3.06256e-18, cumulative = 9.86111e-17
DILUPBiCGStab:  Solving for omega, Initial residual = 0.000118951, Final residual = 2.83675e-06, No Iterations 1
DILUPBiCGStab:  Solving for k, Initial residual = 0.00642661, Final residual = 0.000109818, No Iterations 1
ExecutionTime = 28.9373 s  ClockTime = 30 s

Time = 39s

DILUPBiCGStab:  Solving for h, Initial residual = 0.00276027, Final residual = 1.0557e-05, No Iterations 1
GAMG:  Solving for p_rgh, Initial residual = 0.00850209, Final residual = 6.27011e-05, No Iterations 2
time step continuity errors : sum local = 0.00746505, global = -1.85228e-17, cumulative = 8.00883e-17
DILUPBiCGStab:  Solving for omega, Initial residual = 0.000127639, Final residual = 3.03057e-06, No Iterations 1
DILUPBiCGStab:  Solving for k, Initial residual = 0.00674984, Final residual = 0.000118378, No Iterations 1
ExecutionTime = 29.5304 s  ClockTime = 30 s

Time = 40s

DILUPBiCGStab:  Solving for h, Initial residual = 0.00272036, Final residual = 1.05731e-05, No Iterations 1
GAMG:  Solving for p_rgh, Initial residual = 0.00819544, Final residual = 7.14574e-05, No Iterations 1
time step continuity errors : sum local = 0.00832629, global = -2.75777e-18, cumulative = 7.73305e-17
DILUPBiCGStab:  Solving for omega, Initial residual = 0.000117421, Final residual = 2.75099e-06, No Iterations 1
DILUPBiCGStab:  Solving for k, Initial residual = 0.00704156, Final residual = 0.000125756, No Iterations 1
ExecutionTime = 29.9923 s  ClockTime = 30 s

Time = 41s

DILUPBiCGStab:  Solving for h, Initial residual = 0.00275611, Final residual = 1.07454e-05, No Iterations 1
GAMG:  Solving for p_rgh, Initial residual = 0.00815014, Final residual = 4.18018e-05, No Iterations 2
time step continuity errors : sum local = 0.00478446, global = 1.21888e-17, cumulative = 8.95193e-17
DILUPBiCGStab:  Solving for omega, Initial residual = 0.000109882, Final residual = 2.55137e-06, No Iterations 1
DILUPBiCGStab:  Solving for k, Initial residual = 0.00738413, Final residual = 0.00013581, No Iterations 1
ExecutionTime = 30.5978 s  ClockTime = 31 s

Time = 42s

DILUPBiCGStab:  Solving for h, Initial residual = 0.00272577, Final residual = 1.07258e-05, No Iterations 1
GAMG:  Solving for p_rgh, Initial residual = 0.00782014, Final residual = 7.30909e-05, No Iterations 1
time step continuity errors : sum local = 0.00823384, global = 3.53694e-18, cumulative = 9.30562e-17
DILUPBiCGStab:  Solving for omega, Initial residual = 0.000113246, Final residual = 2.71599e-06, No Iterations 1
DILUPBiCGStab:  Solving for k, Initial residual = 0.00765888, Final residual = 0.000143621, No Iterations 1
ExecutionTime = 31.1763 s  ClockTime = 31 s

Time = 43s

DILUPBiCGStab:  Solving for h, Initial residual = 0.0027599, Final residual = 1.08602e-05, No Iterations 1
GAMG:  Solving for p_rgh, Initial residual = 0.00777526, Final residual = 5.1113e-05, No Iterations 2
time step continuity errors : sum local = 0.00568088, global = 2.5083e-17, cumulative = 1.18139e-16
DILUPBiCGStab:  Solving for omega, Initial residual = 0.000111302, Final residual = 2.67907e-06, No Iterations 1
DILUPBiCGStab:  Solving for k, Initial residual = 0.00786372, Final residual = 0.000143187, No Iterations 1
ExecutionTime = 31.9932 s  ClockTime = 32 s

Time = 44s

DILUPBiCGStab:  Solving for h, Initial residual = 0.00271943, Final residual = 1.08464e-05, No Iterations 1
GAMG:  Solving for p_rgh, Initial residual = 0.00752121, Final residual = 4.3459e-05, No Iterations 3
time step continuity errors : sum local = 0.00476621, global = -3.02594e-17, cumulative = 8.78798e-17
DILUPBiCGStab:  Solving for omega, Initial residual = 0.000103171, Final residual = 2.62154e-06, No Iterations 1
DILUPBiCGStab:  Solving for k, Initial residual = 0.00803894, Final residual = 0.000150393, No Iterations 1
ExecutionTime = 33.0598 s  ClockTime = 33 s

Time = 45s

DILUPBiCGStab:  Solving for h, Initial residual = 0.00271177, Final residual = 1.08487e-05, No Iterations 1
GAMG:  Solving for p_rgh, Initial residual = 0.00724841, Final residual = 6.76518e-05, No Iterations 1
time step continuity errors : sum local = 0.00734014, global = -1.84467e-17, cumulative = 6.94332e-17
DILUPBiCGStab:  Solving for omega, Initial residual = 0.000106531, Final residual = 2.71542e-06, No Iterations 1
DILUPBiCGStab:  Solving for k, Initial residual = 0.00816206, Final residual = 0.000165918, No Iterations 1
bounding k, min: -2.54267e-08 max: 0.000478283 average: 0.00021104
ExecutionTime = 33.651 s  ClockTime = 34 s

Time = 46s

DILUPBiCGStab:  Solving for h, Initial residual = 0.00274074, Final residual = 1.09097e-05, No Iterations 1
GAMG:  Solving for p_rgh, Initial residual = 0.0073176, Final residual = 6.56958e-05, No Iterations 2
time step continuity errors : sum local = 0.00701554, global = -1.18398e-17, cumulative = 5.75934e-17
DILUPBiCGStab:  Solving for omega, Initial residual = 0.000117835, Final residual = 3.17724e-06, No Iterations 1
DILUPBiCGStab:  Solving for k, Initial residual = 0.00838506, Final residual = 0.000174799, No Iterations 1
ExecutionTime = 34.3667 s  ClockTime = 35 s

Time = 47s

DILUPBiCGStab:  Solving for h, Initial residual = 0.00269661, Final residual = 1.09017e-05, No Iterations 1
GAMG:  Solving for p_rgh, Initial residual = 0.00704419, Final residual = 3.0662e-05, No Iterations 3
time step continuity errors : sum local = 0.00325608, global = -8.40361e-18, cumulative = 4.91898e-17
DILUPBiCGStab:  Solving for omega, Initial residual = 0.000110866, Final residual = 2.98252e-06, No Iterations 1
DILUPBiCGStab:  Solving for k, Initial residual = 0.00831631, Final residual = 0.000169374, No Iterations 1
bounding k, min: -2.26985e-09 max: 0.000523818 average: 0.000209028
ExecutionTime = 35.3272 s  ClockTime = 36 s

Time = 48s

DILUPBiCGStab:  Solving for h, Initial residual = 0.00270614, Final residual = 1.08629e-05, No Iterations 1
GAMG:  Solving for p_rgh, Initial residual = 0.00689605, Final residual = 3.56751e-05, No Iterations 2
time step continuity errors : sum local = 0.00376273, global = -6.90919e-18, cumulative = 4.22806e-17
DILUPBiCGStab:  Solving for omega, Initial residual = 0.000103278, Final residual = 2.96824e-06, No Iterations 1
DILUPBiCGStab:  Solving for k, Initial residual = 0.00836993, Final residual = 0.000170634, No Iterations 1
ExecutionTime = 35.9914 s  ClockTime = 36 s

Time = 49s

DILUPBiCGStab:  Solving for h, Initial residual = 0.00269767, Final residual = 1.09601e-05, No Iterations 1
GAMG:  Solving for p_rgh, Initial residual = 0.00680097, Final residual = 3.97974e-05, No Iterations 2
time step continuity errors : sum local = 0.00416046, global = -2.35904e-17, cumulative = 1.86901e-17
DILUPBiCGStab:  Solving for omega, Initial residual = 9.82883e-05, Final residual = 2.81429e-06, No Iterations 1
DILUPBiCGStab:  Solving for k, Initial residual = 0.00840308, Final residual = 0.000174928, No Iterations 1
ExecutionTime = 36.6231 s  ClockTime = 37 s

Time = 50s

DILUPBiCGStab:  Solving for h, Initial residual = 0.00268852, Final residual = 1.09029e-05, No Iterations 1
GAMG:  Solving for p_rgh, Initial residual = 0.00669947, Final residual = 6.24835e-05, No Iterations 1
time step continuity errors : sum local = 0.00644689, global = -3.64951e-17, cumulative = -1.7805e-17
DILUPBiCGStab:  Solving for omega, Initial residual = 0.000105181, Final residual = 3.1341e-06, No Iterations 1
DILUPBiCGStab:  Solving for k, Initial residual = 0.00843355, Final residual = 0.000178375, No Iterations 1
ExecutionTime = 37.9798 s  ClockTime = 38 s

Time = 51s

DILUPBiCGStab:  Solving for h, Initial residual = 0.0027219, Final residual = 1.09743e-05, No Iterations 1
GAMG:  Solving for p_rgh, Initial residual = 0.00670256, Final residual = 3.52826e-05, No Iterations 2
time step continuity errors : sum local = 0.00360812, global = 1.81861e-17, cumulative = 3.81127e-19
DILUPBiCGStab:  Solving for omega, Initial residual = 0.000101764, Final residual = 2.93645e-06, No Iterations 1
DILUPBiCGStab:  Solving for k, Initial residual = 0.00849576, Final residual = 0.000192618, No Iterations 1
ExecutionTime = 38.5153 s  ClockTime = 39 s

Time = 52s

DILUPBiCGStab:  Solving for h, Initial residual = 0.00269009, Final residual = 1.08711e-05, No Iterations 1
GAMG:  Solving for p_rgh, Initial residual = 0.0064848, Final residual = 2.81597e-05, No Iterations 3
time step continuity errors : sum local = 0.00284632, global = -7.73875e-18, cumulative = -7.35762e-18
DILUPBiCGStab:  Solving for omega, Initial residual = 9.35303e-05, Final residual = 2.86164e-06, No Iterations 1
DILUPBiCGStab:  Solving for k, Initial residual = 0.00858923, Final residual = 0.000199114, No Iterations 1
ExecutionTime = 39.3171 s  ClockTime = 40 s

Time = 53s

DILUPBiCGStab:  Solving for h, Initial residual = 0.00268061, Final residual = 1.08829e-05, No Iterations 1
GAMG:  Solving for p_rgh, Initial residual = 0.00631832, Final residual = 2.35295e-05, No Iterations 3
time step continuity errors : sum local = 0.00236077, global = -6.70519e-18, cumulative = -1.40628e-17
DILUPBiCGStab:  Solving for omega, Initial residual = 9.33496e-05, Final residual = 2.76865e-06, No Iterations 1
DILUPBiCGStab:  Solving for k, Initial residual = 0.00863659, Final residual = 0.000190216, No Iterations 1
bounding k, min: -4.74756e-08 max: 0.000652089 average: 0.000205224
ExecutionTime = 40.1624 s  ClockTime = 41 s

Time = 54s

DILUPBiCGStab:  Solving for h, Initial residual = 0.00267347, Final residual = 1.09304e-05, No Iterations 1
GAMG:  Solving for p_rgh, Initial residual = 0.0062377, Final residual = 5.46337e-05, No Iterations 2
time step continuity errors : sum local = 0.0054168, global = 1.44974e-17, cumulative = 4.34594e-19
DILUPBiCGStab:  Solving for omega, Initial residual = 0.000102152, Final residual = 3.10773e-06, No Iterations 1
DILUPBiCGStab:  Solving for k, Initial residual = 0.00872164, Final residual = 0.000190982, No Iterations 1
ExecutionTime = 40.8537 s  ClockTime = 41 s

Time = 55s

DILUPBiCGStab:  Solving for h, Initial residual = 0.00265026, Final residual = 1.08977e-05, No Iterations 1
GAMG:  Solving for p_rgh, Initial residual = 0.00616691, Final residual = 5.15072e-05, No Iterations 1
time step continuity errors : sum local = 0.00504507, global = -1.84159e-17, cumulative = -1.79813e-17
DILUPBiCGStab:  Solving for omega, Initial residual = 9.6654e-05, Final residual = 2.83435e-06, No Iterations 1
DILUPBiCGStab:  Solving for k, Initial residual = 0.00888549, Final residual = 0.000197247, No Iterations 1
bounding k, min: -5.39722e-07 max: 0.000701615 average: 0.000204324
ExecutionTime = 41.6084 s  ClockTime = 42 s

Time = 56s

DILUPBiCGStab:  Solving for h, Initial residual = 0.00267696, Final residual = 1.10184e-05, No Iterations 1
GAMG:  Solving for p_rgh, Initial residual = 0.0061385, Final residual = 2.24756e-05, No Iterations 2
time step continuity errors : sum local = 0.00218479, global = 1.48212e-18, cumulative = -1.64992e-17
DILUPBiCGStab:  Solving for omega, Initial residual = 9.06282e-05, Final residual = 2.77325e-06, No Iterations 1
DILUPBiCGStab:  Solving for k, Initial residual = 0.00907086, Final residual = 0.000206841, No Iterations 1
ExecutionTime = 42.1697 s  ClockTime = 43 s

Time = 57s

DILUPBiCGStab:  Solving for h, Initial residual = 0.00265254, Final residual = 1.09031e-05, No Iterations 1
GAMG:  Solving for p_rgh, Initial residual = 0.00597882, Final residual = 2.70527e-05, No Iterations 2
time step continuity errors : sum local = 0.00259992, global = -6.85267e-18, cumulative = -2.33519e-17
DILUPBiCGStab:  Solving for omega, Initial residual = 8.5062e-05, Final residual = 2.52403e-06, No Iterations 1
DILUPBiCGStab:  Solving for k, Initial residual = 0.00927033, Final residual = 0.000215878, No Iterations 1
ExecutionTime = 42.8728 s  ClockTime = 43 s

Time = 58s

DILUPBiCGStab:  Solving for h, Initial residual = 0.00264284, Final residual = 1.08349e-05, No Iterations 1
GAMG:  Solving for p_rgh, Initial residual = 0.0058712, Final residual = 3.21303e-05, No Iterations 2
time step continuity errors : sum local = 0.00305676, global = 9.36466e-18, cumulative = -1.39872e-17
DILUPBiCGStab:  Solving for omega, Initial residual = 8.55036e-05, Final residual = 2.72367e-06, No Iterations 1
DILUPBiCGStab:  Solving for k, Initial residual = 0.00940234, Final residual = 0.000214332, No Iterations 1
ExecutionTime = 43.5432 s  ClockTime = 44 s

Time = 59s

DILUPBiCGStab:  Solving for h, Initial residual = 0.00262794, Final residual = 1.08561e-05, No Iterations 1
GAMG:  Solving for p_rgh, Initial residual = 0.00575828, Final residual = 5.24083e-05, No Iterations 2
time step continuity errors : sum local = 0.00494707, global = 6.52576e-19, cumulative = -1.33347e-17
DILUPBiCGStab:  Solving for omega, Initial residual = 8.76342e-05, Final residual = 2.67804e-06, No Iterations 1
DILUPBiCGStab:  Solving for k, Initial residual = 0.00953201, Final residual = 0.00022299, No Iterations 1
ExecutionTime = 44.2414 s  ClockTime = 45 s

Time = 60s

DILUPBiCGStab:  Solving for h, Initial residual = 0.00260518, Final residual = 1.07581e-05, No Iterations 1
GAMG:  Solving for p_rgh, Initial residual = 0.00566056, Final residual = 5.45439e-05, No Iterations 1
time step continuity errors : sum local = 0.00510597, global = 3.89801e-17, cumulative = 2.56454e-17
DILUPBiCGStab:  Solving for omega, Initial residual = 9.14023e-05, Final residual = 2.80701e-06, No Iterations 1
DILUPBiCGStab:  Solving for k, Initial residual = 0.00957281, Final residual = 0.00023017, No Iterations 1
ExecutionTime = 44.7406 s  ClockTime = 45 s

Time = 61s

DILUPBiCGStab:  Solving for h, Initial residual = 0.00263046, Final residual = 1.09033e-05, No Iterations 1
GAMG:  Solving for p_rgh, Initial residual = 0.00570382, Final residual = 2.73431e-05, No Iterations 2
time step continuity errors : sum local = 0.0025298, global = -1.48169e-17, cumulative = 1.08285e-17
DILUPBiCGStab:  Solving for omega, Initial residual = 8.60014e-05, Final residual = 2.65446e-06, No Iterations 1
DILUPBiCGStab:  Solving for k, Initial residual = 0.0097047, Final residual = 0.000238607, No Iterations 1
ExecutionTime = 45.3365 s  ClockTime = 46 s

Time = 62s

DILUPBiCGStab:  Solving for h, Initial residual = 0.00259917, Final residual = 1.08775e-05, No Iterations 1
GAMG:  Solving for p_rgh, Initial residual = 0.00559865, Final residual = 3.6768e-05, No Iterations 2
time step continuity errors : sum local = 0.00337978, global = 2.24162e-18, cumulative = 1.30701e-17
DILUPBiCGStab:  Solving for omega, Initial residual = 8.47741e-05, Final residual = 2.83282e-06, No Iterations 1
DILUPBiCGStab:  Solving for k, Initial residual = 0.00977388, Final residual = 0.000249764, No Iterations 1
bounding k, min: -1.04297e-08 max: 0.000868913 average: 0.0002025
ExecutionTime = 45.9362 s  ClockTime = 47 s

Time = 63s

DILUPBiCGStab:  Solving for h, Initial residual = 0.00258108, Final residual = 1.08305e-05, No Iterations 1
GAMG:  Solving for p_rgh, Initial residual = 0.00545047, Final residual = 1.68047e-05, No Iterations 3
time step continuity errors : sum local = 0.00153488, global = -3.45461e-18, cumulative = 9.61551e-18
DILUPBiCGStab:  Solving for omega, Initial residual = 8.39568e-05, Final residual = 2.66304e-06, No Iterations 1
DILUPBiCGStab:  Solving for k, Initial residual = 0.00979576, Final residual = 0.000251987, No Iterations 1
ExecutionTime = 46.5009 s  ClockTime = 47 s

Time = 64s

DILUPBiCGStab:  Solving for h, Initial residual = 0.0025756, Final residual = 1.07807e-05, No Iterations 1
GAMG:  Solving for p_rgh, Initial residual = 0.00539154, Final residual = 1.42155e-05, No Iterations 2
time step continuity errors : sum local = 0.00128898, global = 1.24665e-17, cumulative = 2.2082e-17
DILUPBiCGStab:  Solving for omega, Initial residual = 8.33398e-05, Final residual = 2.8911e-06, No Iterations 1
DILUPBiCGStab:  Solving for k, Initial residual = 0.00992348, Final residual = 0.000266842, No Iterations 1
ExecutionTime = 47.166 s  ClockTime = 48 s

Time = 65s

DILUPBiCGStab:  Solving for h, Initial residual = 0.00256682, Final residual = 1.08442e-05, No Iterations 1
GAMG:  Solving for p_rgh, Initial residual = 0.00536048, Final residual = 1.55679e-05, No Iterations 2
time step continuity errors : sum local = 0.00140162, global = 6.04652e-19, cumulative = 2.26867e-17
DILUPBiCGStab:  Solving for omega, Initial residual = 8.17583e-05, Final residual = 2.76326e-06, No Iterations 1
DILUPBiCGStab:  Solving for k, Initial residual = 0.00997117, Final residual = 0.000260976, No Iterations 1
ExecutionTime = 47.7284 s  ClockTime = 48 s

Time = 66s

DILUPBiCGStab:  Solving for h, Initial residual = 0.00255567, Final residual = 1.07439e-05, No Iterations 1
GAMG:  Solving for p_rgh, Initial residual = 0.00527382, Final residual = 2.09145e-05, No Iterations 2
time step continuity errors : sum local = 0.00188101, global = 1.22696e-17, cumulative = 3.49563e-17
DILUPBiCGStab:  Solving for omega, Initial residual = 8.20905e-05, Final residual = 2.95264e-06, No Iterations 1
DILUPBiCGStab:  Solving for k, Initial residual = 0.00998053, Final residual = 0.000266388, No Iterations 1
ExecutionTime = 48.3165 s  ClockTime = 49 s

Time = 67s

DILUPBiCGStab:  Solving for h, Initial residual = 0.00254319, Final residual = 1.07146e-05, No Iterations 1
GAMG:  Solving for p_rgh, Initial residual = 0.00514093, Final residual = 2.76366e-05, No Iterations 2
time step continuity errors : sum local = 0.00248066, global = -1.79372e-17, cumulative = 1.70191e-17
DILUPBiCGStab:  Solving for omega, Initial residual = 8.26035e-05, Final residual = 2.85586e-06, No Iterations 1
DILUPBiCGStab:  Solving for k, Initial residual = 0.0100425, Final residual = 0.000274136, No Iterations 1
ExecutionTime = 49.1783 s  ClockTime = 50 s

Time = 68s

DILUPBiCGStab:  Solving for h, Initial residual = 0.00252627, Final residual = 1.06606e-05, No Iterations 1
GAMG:  Solving for p_rgh, Initial residual = 0.00505127, Final residual = 3.82709e-05, No Iterations 2
time step continuity errors : sum local = 0.00342342, global = 1.89714e-17, cumulative = 3.59905e-17
DILUPBiCGStab:  Solving for omega, Initial residual = 8.39959e-05, Final residual = 3.21074e-06, No Iterations 1
DILUPBiCGStab:  Solving for k, Initial residual = 0.010131, Final residual = 0.00026961, No Iterations 1
ExecutionTime = 50.1712 s  ClockTime = 51 s

Time = 69s

DILUPBiCGStab:  Solving for h, Initial residual = 0.00250638, Final residual = 1.06286e-05, No Iterations 1
GAMG:  Solving for p_rgh, Initial residual = 0.0050093, Final residual = 2.4252e-05, No Iterations 3
time step continuity errors : sum local = 0.00215313, global = -2.97199e-17, cumulative = 6.27061e-18
DILUPBiCGStab:  Solving for omega, Initial residual = 8.4153e-05, Final residual = 2.98115e-06, No Iterations 1
DILUPBiCGStab:  Solving for k, Initial residual = 0.0101922, Final residual = 0.00027725, No Iterations 1
ExecutionTime = 51 s  ClockTime = 52 s

Time = 70s

DILUPBiCGStab:  Solving for h, Initial residual = 0.00250561, Final residual = 1.05607e-05, No Iterations 1
GAMG:  Solving for p_rgh, Initial residual = 0.0049533, Final residual = 2.26363e-05, No Iterations 2
time step continuity errors : sum local = 0.00198492, global = 2.03079e-17, cumulative = 2.65785e-17
DILUPBiCGStab:  Solving for omega, Initial residual = 8.31116e-05, Final residual = 3.28849e-06, No Iterations 1
DILUPBiCGStab:  Solving for k, Initial residual = 0.0101148, Final residual = 0.000273177, No Iterations 1
bounding k, min: -1.16849e-07 max: 0.00104882 average: 0.000205738
ExecutionTime = 51.7485 s  ClockTime = 53 s

Time = 71s

DILUPBiCGStab:  Solving for h, Initial residual = 0.00249251, Final residual = 1.04945e-05, No Iterations 1
GAMG:  Solving for p_rgh, Initial residual = 0.00497119, Final residual = 2.04826e-05, No Iterations 2
time step continuity errors : sum local = 0.00177427, global = -1.07626e-17, cumulative = 1.58159e-17
DILUPBiCGStab:  Solving for omega, Initial residual = 8.1566e-05, Final residual = 2.99138e-06, No Iterations 1
DILUPBiCGStab:  Solving for k, Initial residual = 0.0101649, Final residual = 0.000287225, No Iterations 1
ExecutionTime = 52.4967 s  ClockTime = 53 s

Time = 72s

DILUPBiCGStab:  Solving for h, Initial residual = 0.00248314, Final residual = 1.04451e-05, No Iterations 1
GAMG:  Solving for p_rgh, Initial residual = 0.00492042, Final residual = 1.53916e-05, No Iterations 2
time step continuity errors : sum local = 0.00132536, global = 1.67697e-17, cumulative = 3.25857e-17
DILUPBiCGStab:  Solving for omega, Initial residual = 8.19971e-05, Final residual = 3.26918e-06, No Iterations 1
DILUPBiCGStab:  Solving for k, Initial residual = 0.0102215, Final residual = 0.000294507, No Iterations 1
bounding k, min: -2.08479e-07 max: 0.00109385 average: 0.000207955
ExecutionTime = 53.3937 s  ClockTime = 54 s

Time = 73s

DILUPBiCGStab:  Solving for h, Initial residual = 0.00246448, Final residual = 1.04041e-05, No Iterations 1
GAMG:  Solving for p_rgh, Initial residual = 0.00484149, Final residual = 3.54958e-05, No Iterations 2
time step continuity errors : sum local = 0.00303427, global = -8.07548e-18, cumulative = 2.45102e-17
DILUPBiCGStab:  Solving for omega, Initial residual = 8.446e-05, Final residual = 3.14067e-06, No Iterations 1
DILUPBiCGStab:  Solving for k, Initial residual = 0.0102979, Final residual = 0.000299102, No Iterations 1
bounding k, min: -5.78986e-08 max: 0.00111548 average: 0.000209339
ExecutionTime = 54.1605 s  ClockTime = 55 s

Time = 74s

DILUPBiCGStab:  Solving for h, Initial residual = 0.00244265, Final residual = 1.02786e-05, No Iterations 1
GAMG:  Solving for p_rgh, Initial residual = 0.00471902, Final residual = 1.53378e-05, No Iterations 3
time step continuity errors : sum local = 0.00130543, global = -1.25673e-17, cumulative = 1.19429e-17
DILUPBiCGStab:  Solving for omega, Initial residual = 8.02421e-05, Final residual = 3.26504e-06, No Iterations 1
DILUPBiCGStab:  Solving for k, Initial residual = 0.010234, Final residual = 0.000296349, No Iterations 1
bounding k, min: -3.86032e-07 max: 0.00113706 average: 0.000210807
ExecutionTime = 54.9391 s  ClockTime = 56 s

Time = 75s

DILUPBiCGStab:  Solving for h, Initial residual = 0.00243683, Final residual = 1.02705e-05, No Iterations 1
GAMG:  Solving for p_rgh, Initial residual = 0.00471947, Final residual = 1.57322e-05, No Iterations 2
time step continuity errors : sum local = 0.00133221, global = -2.66192e-18, cumulative = 9.28096e-18
DILUPBiCGStab:  Solving for omega, Initial residual = 8.00972e-05, Final residual = 3.02026e-06, No Iterations 1
DILUPBiCGStab:  Solving for k, Initial residual = 0.0102441, Final residual = 0.0002965, No Iterations 1
bounding k, min: -2.65982e-07 max: 0.0011581 average: 0.000212467
ExecutionTime = 55.5594 s  ClockTime = 57 s

Time = 76s

DILUPBiCGStab:  Solving for h, Initial residual = 0.00242676, Final residual = 1.01843e-05, No Iterations 1
GAMG:  Solving for p_rgh, Initial residual = 0.00467125, Final residual = 2.17487e-05, No Iterations 2
time step continuity errors : sum local = 0.00182591, global = 1.42289e-17, cumulative = 2.35099e-17
DILUPBiCGStab:  Solving for omega, Initial residual = 7.79342e-05, Final residual = 3.18412e-06, No Iterations 1
DILUPBiCGStab:  Solving for k, Initial residual = 0.010185, Final residual = 0.00029872, No Iterations 1
ExecutionTime = 56.3013 s  ClockTime = 57 s

Time = 77s

DILUPBiCGStab:  Solving for h, Initial residual = 0.00241572, Final residual = 1.00937e-05, No Iterations 1
GAMG:  Solving for p_rgh, Initial residual = 0.00460869, Final residual = 2.35683e-05, No Iterations 2
time step continuity errors : sum local = 0.00196476, global = 7.95013e-18, cumulative = 3.146e-17
DILUPBiCGStab:  Solving for omega, Initial residual = 7.72568e-05, Final residual = 2.92661e-06, No Iterations 1
DILUPBiCGStab:  Solving for k, Initial residual = 0.0101769, Final residual = 0.000296908, No Iterations 1
ExecutionTime = 58.0575 s  ClockTime = 59 s

Time = 78s

DILUPBiCGStab:  Solving for h, Initial residual = 0.00239939, Final residual = 1.00063e-05, No Iterations 1
GAMG:  Solving for p_rgh, Initial residual = 0.00459835, Final residual = 2.27462e-05, No Iterations 2
time step continuity errors : sum local = 0.00189115, global = 2.20229e-18, cumulative = 3.36623e-17
DILUPBiCGStab:  Solving for omega, Initial residual = 7.63944e-05, Final residual = 3.12669e-06, No Iterations 1
DILUPBiCGStab:  Solving for k, Initial residual = 0.0101609, Final residual = 0.00029739, No Iterations 1
bounding k, min: -1.5431e-07 max: 0.00122221 average: 0.000218097
ExecutionTime = 58.9376 s  ClockTime = 60 s

Time = 79s

DILUPBiCGStab:  Solving for h, Initial residual = 0.00238561, Final residual = 9.99244e-06, No Iterations 1
GAMG:  Solving for p_rgh, Initial residual = 0.00457362, Final residual = 2.16931e-05, No Iterations 2
time step continuity errors : sum local = 0.00179511, global = -5.9543e-18, cumulative = 2.7708e-17
DILUPBiCGStab:  Solving for omega, Initial residual = 7.59728e-05, Final residual = 2.94578e-06, No Iterations 1
DILUPBiCGStab:  Solving for k, Initial residual = 0.0101663, Final residual = 0.000300638, No Iterations 1
ExecutionTime = 60.0953 s  ClockTime = 61 s

Time = 80s

DILUPBiCGStab:  Solving for h, Initial residual = 0.00237075, Final residual = 9.88436e-06, No Iterations 1
GAMG:  Solving for p_rgh, Initial residual = 0.00445996, Final residual = 2.25197e-05, No Iterations 2
time step continuity errors : sum local = 0.00185836, global = -5.09526e-18, cumulative = 2.26127e-17
DILUPBiCGStab:  Solving for omega, Initial residual = 7.53383e-05, Final residual = 3.25413e-06, No Iterations 1
DILUPBiCGStab:  Solving for k, Initial residual = 0.0101651, Final residual = 0.000304599, No Iterations 1
ExecutionTime = 60.7801 s  ClockTime = 61 s

Time = 81s

DILUPBiCGStab:  Solving for h, Initial residual = 0.00235515, Final residual = 9.75302e-06, No Iterations 1
GAMG:  Solving for p_rgh, Initial residual = 0.0044119, Final residual = 2.4496e-05, No Iterations 2
time step continuity errors : sum local = 0.00202065, global = 8.6912e-18, cumulative = 3.13039e-17
DILUPBiCGStab:  Solving for omega, Initial residual = 7.48481e-05, Final residual = 2.98212e-06, No Iterations 1
DILUPBiCGStab:  Solving for k, Initial residual = 0.0101109, Final residual = 0.000304889, No Iterations 1
bounding k, min: -2.85173e-08 max: 0.00128667 average: 0.00022527
ExecutionTime = 61.6264 s  ClockTime = 62 s

Time = 82s

DILUPBiCGStab:  Solving for h, Initial residual = 0.00233936, Final residual = 9.68681e-06, No Iterations 1
GAMG:  Solving for p_rgh, Initial residual = 0.00434482, Final residual = 2.63284e-05, No Iterations 2
time step continuity errors : sum local = 0.00216396, global = 1.52157e-17, cumulative = 4.65196e-17
DILUPBiCGStab:  Solving for omega, Initial residual = 7.35063e-05, Final residual = 3.28478e-06, No Iterations 1
DILUPBiCGStab:  Solving for k, Initial residual = 0.0101025, Final residual = 0.000312413, No Iterations 1
ExecutionTime = 62.2871 s  ClockTime = 63 s

Time = 83s

DILUPBiCGStab:  Solving for h, Initial residual = 0.00232405, Final residual = 9.60386e-06, No Iterations 1
GAMG:  Solving for p_rgh, Initial residual = 0.00431086, Final residual = 2.45658e-05, No Iterations 2
time step continuity errors : sum local = 0.00201255, global = -1.63206e-18, cumulative = 4.48876e-17
DILUPBiCGStab:  Solving for omega, Initial residual = 7.27604e-05, Final residual = 2.9312e-06, No Iterations 1
DILUPBiCGStab:  Solving for k, Initial residual = 0.0100161, Final residual = 0.000307923, No Iterations 1
bounding k, min: -8.32361e-09 max: 0.00132836 average: 0.000230752
ExecutionTime = 63.55 s  ClockTime = 64 s

Time = 84s

DILUPBiCGStab:  Solving for h, Initial residual = 0.00230775, Final residual = 9.47376e-06, No Iterations 1
GAMG:  Solving for p_rgh, Initial residual = 0.00425209, Final residual = 2.06688e-05, No Iterations 2
time step continuity errors : sum local = 0.00168754, global = 2.46984e-17, cumulative = 6.95859e-17
DILUPBiCGStab:  Solving for omega, Initial residual = 7.16088e-05, Final residual = 2.98174e-06, No Iterations 1
DILUPBiCGStab:  Solving for k, Initial residual = 0.00982368, Final residual = 0.000300328, No Iterations 1
ExecutionTime = 64.3423 s  ClockTime = 65 s

Time = 85s

DILUPBiCGStab:  Solving for h, Initial residual = 0.0022943, Final residual = 9.40635e-06, No Iterations 1
GAMG:  Solving for p_rgh, Initial residual = 0.00420258, Final residual = 1.95572e-05, No Iterations 2
time step continuity errors : sum local = 0.00159399, global = 8.66908e-18, cumulative = 7.8255e-17
DILUPBiCGStab:  Solving for omega, Initial residual = 7.11541e-05, Final residual = 2.76854e-06, No Iterations 1
DILUPBiCGStab:  Solving for k, Initial residual = 0.00972795, Final residual = 0.000300229, No Iterations 1
bounding k, min: -4.24096e-08 max: 0.00136832 average: 0.000236899
ExecutionTime = 65.3026 s  ClockTime = 66 s

Time = 86s

DILUPBiCGStab:  Solving for h, Initial residual = 0.00228198, Final residual = 9.29934e-06, No Iterations 1
GAMG:  Solving for p_rgh, Initial residual = 0.00418499, Final residual = 2.04156e-05, No Iterations 2
time step continuity errors : sum local = 0.00165904, global = 6.50242e-18, cumulative = 8.47574e-17
DILUPBiCGStab:  Solving for omega, Initial residual = 7.03129e-05, Final residual = 2.85521e-06, No Iterations 1
DILUPBiCGStab:  Solving for k, Initial residual = 0.00961792, Final residual = 0.000306964, No Iterations 1
bounding k, min: -4.06343e-09 max: 0.00138761 average: 0.000240197
ExecutionTime = 66.0615 s  ClockTime = 66 s

Time = 87s

DILUPBiCGStab:  Solving for h, Initial residual = 0.00226696, Final residual = 9.20829e-06, No Iterations 1
GAMG:  Solving for p_rgh, Initial residual = 0.004105, Final residual = 2.22328e-05, No Iterations 2
time step continuity errors : sum local = 0.00179785, global = 7.72399e-18, cumulative = 9.24814e-17
DILUPBiCGStab:  Solving for omega, Initial residual = 6.9714e-05, Final residual = 2.58813e-06, No Iterations 1
DILUPBiCGStab:  Solving for k, Initial residual = 0.0094391, Final residual = 0.000299243, No Iterations 1
bounding k, min: -1.80021e-08 max: 0.00140639 average: 0.000243656
ExecutionTime = 67.1954 s  ClockTime = 68 s

Time = 88s

DILUPBiCGStab:  Solving for h, Initial residual = 0.00225288, Final residual = 9.09376e-06, No Iterations 1
GAMG:  Solving for p_rgh, Initial residual = 0.00405504, Final residual = 2.35239e-05, No Iterations 2
time step continuity errors : sum local = 0.00190027, global = -4.19567e-18, cumulative = 8.82858e-17
DILUPBiCGStab:  Solving for omega, Initial residual = 6.89537e-05, Final residual = 2.63287e-06, No Iterations 1
DILUPBiCGStab:  Solving for k, Initial residual = 0.00929853, Final residual = 0.000299951, No Iterations 1
ExecutionTime = 67.8405 s  ClockTime = 68 s

Time = 89s

DILUPBiCGStab:  Solving for h, Initial residual = 0.00223681, Final residual = 9.01737e-06, No Iterations 1
GAMG:  Solving for p_rgh, Initial residual = 0.00402088, Final residual = 2.40724e-05, No Iterations 2
time step continuity errors : sum local = 0.00193458, global = 1.30036e-17, cumulative = 1.01289e-16
DILUPBiCGStab:  Solving for omega, Initial residual = 6.80553e-05, Final residual = 2.56836e-06, No Iterations 1
DILUPBiCGStab:  Solving for k, Initial residual = 0.00912937, Final residual = 0.000292749, No Iterations 1
ExecutionTime = 68.5188 s  ClockTime = 69 s

Time = 90s

DILUPBiCGStab:  Solving for h, Initial residual = 0.00222093, Final residual = 8.9074e-06, No Iterations 1
GAMG:  Solving for p_rgh, Initial residual = 0.0039881, Final residual = 2.36943e-05, No Iterations 2
time step continuity errors : sum local = 0.00190046, global = 8.03741e-19, cumulative = 1.02093e-16
DILUPBiCGStab:  Solving for omega, Initial residual = 6.77026e-05, Final residual = 2.64354e-06, No Iterations 1
DILUPBiCGStab:  Solving for k, Initial residual = 0.00896964, Final residual = 0.000287456, No Iterations 1
ExecutionTime = 69.1844 s  ClockTime = 70 s

Time = 91s

DILUPBiCGStab:  Solving for h, Initial residual = 0.00220543, Final residual = 8.82897e-06, No Iterations 1
GAMG:  Solving for p_rgh, Initial residual = 0.00393759, Final residual = 2.26137e-05, No Iterations 2
time step continuity errors : sum local = 0.00180854, global = -4.88756e-18, cumulative = 9.72055e-17
DILUPBiCGStab:  Solving for omega, Initial residual = 6.73501e-05, Final residual = 2.58211e-06, No Iterations 1
DILUPBiCGStab:  Solving for k, Initial residual = 0.00892926, Final residual = 0.000287391, No Iterations 1
ExecutionTime = 70.0404 s  ClockTime = 71 s

Time = 92s

DILUPBiCGStab:  Solving for h, Initial residual = 0.00219134, Final residual = 8.74095e-06, No Iterations 1
GAMG:  Solving for p_rgh, Initial residual = 0.00393697, Final residual = 2.10233e-05, No Iterations 2
time step continuity errors : sum local = 0.00167242, global = 1.70002e-17, cumulative = 1.14206e-16
DILUPBiCGStab:  Solving for omega, Initial residual = 6.73187e-05, Final residual = 2.73304e-06, No Iterations 1
DILUPBiCGStab:  Solving for k, Initial residual = 0.00886393, Final residual = 0.000292027, No Iterations 1
ExecutionTime = 70.8029 s  ClockTime = 71 s

Time = 93s

DILUPBiCGStab:  Solving for h, Initial residual = 0.00217616, Final residual = 8.66198e-06, No Iterations 1
GAMG:  Solving for p_rgh, Initial residual = 0.00396329, Final residual = 1.92768e-05, No Iterations 2
time step continuity errors : sum local = 0.00152842, global = 3.69462e-17, cumulative = 1.51152e-16
DILUPBiCGStab:  Solving for omega, Initial residual = 6.70064e-05, Final residual = 2.65107e-06, No Iterations 1
DILUPBiCGStab:  Solving for k, Initial residual = 0.00871705, Final residual = 0.000283611, No Iterations 1
ExecutionTime = 71.5265 s  ClockTime = 72 s

Time = 94s

DILUPBiCGStab:  Solving for h, Initial residual = 0.00215957, Final residual = 8.59412e-06, No Iterations 1
GAMG:  Solving for p_rgh, Initial residual = 0.00390274, Final residual = 1.80461e-05, No Iterations 2
time step continuity errors : sum local = 0.00143069, global = -3.06047e-17, cumulative = 1.20547e-16
DILUPBiCGStab:  Solving for omega, Initial residual = 6.64954e-05, Final residual = 2.75479e-06, No Iterations 1
DILUPBiCGStab:  Solving for k, Initial residual = 0.00859806, Final residual = 0.000282241, No Iterations 1
ExecutionTime = 72.3108 s  ClockTime = 73 s

Time = 95s

DILUPBiCGStab:  Solving for h, Initial residual = 0.00214527, Final residual = 8.53953e-06, No Iterations 1
GAMG:  Solving for p_rgh, Initial residual = 0.00387127, Final residual = 1.87761e-05, No Iterations 2
time step continuity errors : sum local = 0.00147949, global = -2.4659e-17, cumulative = 9.58881e-17
DILUPBiCGStab:  Solving for omega, Initial residual = 6.591e-05, Final residual = 2.63098e-06, No Iterations 1
DILUPBiCGStab:  Solving for k, Initial residual = 0.00849427, Final residual = 0.000274861, No Iterations 1
bounding k, min: -3.74472e-08 max: 0.00154208 average: 0.000275018
ExecutionTime = 73.0856 s  ClockTime = 74 s

Time = 96s

DILUPBiCGStab:  Solving for h, Initial residual = 0.0021289, Final residual = 8.48484e-06, No Iterations 1
GAMG:  Solving for p_rgh, Initial residual = 0.00381754, Final residual = 2.17584e-05, No Iterations 2
time step continuity errors : sum local = 0.00170907, global = 3.19566e-17, cumulative = 1.27845e-16
DILUPBiCGStab:  Solving for omega, Initial residual = 6.5712e-05, Final residual = 2.78004e-06, No Iterations 1
DILUPBiCGStab:  Solving for k, Initial residual = 0.00839502, Final residual = 0.000275428, No Iterations 1
ExecutionTime = 73.8178 s  ClockTime = 75 s

Time = 97s

DILUPBiCGStab:  Solving for h, Initial residual = 0.00211164, Final residual = 8.42642e-06, No Iterations 1
GAMG:  Solving for p_rgh, Initial residual = 0.00380737, Final residual = 2.43653e-05, No Iterations 2
time step continuity errors : sum local = 0.00191079, global = 3.21004e-18, cumulative = 1.31055e-16
DILUPBiCGStab:  Solving for omega, Initial residual = 6.53202e-05, Final residual = 2.65643e-06, No Iterations 1
DILUPBiCGStab:  Solving for k, Initial residual = 0.00821806, Final residual = 0.000265606, No Iterations 1
ExecutionTime = 74.541 s  ClockTime = 75 s

Time = 98s

DILUPBiCGStab:  Solving for h, Initial residual = 0.00209621, Final residual = 8.31629e-06, No Iterations 1
GAMG:  Solving for p_rgh, Initial residual = 0.00380242, Final residual = 2.1994e-05, No Iterations 2
time step continuity errors : sum local = 0.00171825, global = -3.10926e-19, cumulative = 1.30744e-16
DILUPBiCGStab:  Solving for omega, Initial residual = 6.42342e-05, Final residual = 2.8036e-06, No Iterations 1
DILUPBiCGStab:  Solving for k, Initial residual = 0.00806717, Final residual = 0.000260839, No Iterations 1
ExecutionTime = 75.2315 s  ClockTime = 76 s

Time = 99s

DILUPBiCGStab:  Solving for h, Initial residual = 0.00208142, Final residual = 8.28295e-06, No Iterations 1
GAMG:  Solving for p_rgh, Initial residual = 0.0037788, Final residual = 1.75239e-05, No Iterations 2
time step continuity errors : sum local = 0.0013696, global = 2.78726e-18, cumulative = 1.33531e-16
DILUPBiCGStab:  Solving for omega, Initial residual = 6.30877e-05, Final residual = 2.68065e-06, No Iterations 1
DILUPBiCGStab:  Solving for k, Initial residual = 0.00798765, Final residual = 0.00025559, No Iterations 1
ExecutionTime = 75.909 s  ClockTime = 77 s

Time = 100s

DILUPBiCGStab:  Solving for h, Initial residual = 0.00206805, Final residual = 8.20955e-06, No Iterations 1
GAMG:  Solving for p_rgh, Initial residual = 0.00373556, Final residual = 1.71631e-05, No Iterations 2
time step continuity errors : sum local = 0.00133977, global = 2.14109e-17, cumulative = 1.54942e-16
DILUPBiCGStab:  Solving for omega, Initial residual = 6.26871e-05, Final residual = 2.81166e-06, No Iterations 1
DILUPBiCGStab:  Solving for k, Initial residual = 0.00788112, Final residual = 0.000254252, No Iterations 1
ExecutionTime = 77.5534 s  ClockTime = 78 s

Time = 101s

DILUPBiCGStab:  Solving for h, Initial residual = 0.00205439, Final residual = 8.17095e-06, No Iterations 1
GAMG:  Solving for p_rgh, Initial residual = 0.00367625, Final residual = 1.79039e-05, No Iterations 2
time step continuity errors : sum local = 0.0013988, global = -1.57774e-17, cumulative = 1.39165e-16
DILUPBiCGStab:  Solving for omega, Initial residual = 6.26865e-05, Final residual = 2.62963e-06, No Iterations 1
DILUPBiCGStab:  Solving for k, Initial residual = 0.00774966, Final residual = 0.000245614, No Iterations 1
ExecutionTime = 78.2805 s  ClockTime = 79 s

Time = 102s

DILUPBiCGStab:  Solving for h, Initial residual = 0.00204124, Final residual = 8.0697e-06, No Iterations 1
GAMG:  Solving for p_rgh, Initial residual = 0.00363916, Final residual = 1.81755e-05, No Iterations 2
time step continuity errors : sum local = 0.00141876, global = -7.16974e-18, cumulative = 1.31995e-16
DILUPBiCGStab:  Solving for omega, Initial residual = 6.21209e-05, Final residual = 2.80696e-06, No Iterations 1
DILUPBiCGStab:  Solving for k, Initial residual = 0.00760028, Final residual = 0.000240995, No Iterations 1
ExecutionTime = 79.1066 s  ClockTime = 80 s

Time = 103s

DILUPBiCGStab:  Solving for h, Initial residual = 0.0020258, Final residual = 8.02311e-06, No Iterations 1
GAMG:  Solving for p_rgh, Initial residual = 0.00361458, Final residual = 1.77596e-05, No Iterations 2
time step continuity errors : sum local = 0.00138501, global = 1.31879e-17, cumulative = 1.45183e-16
DILUPBiCGStab:  Solving for omega, Initial residual = 6.18714e-05, Final residual = 2.64699e-06, No Iterations 1
DILUPBiCGStab:  Solving for k, Initial residual = 0.00748527, Final residual = 0.000234098, No Iterations 1
ExecutionTime = 79.6183 s  ClockTime = 80 s

Time = 104s

DILUPBiCGStab:  Solving for h, Initial residual = 0.00201134, Final residual = 7.91933e-06, No Iterations 1
GAMG:  Solving for p_rgh, Initial residual = 0.00363877, Final residual = 1.73624e-05, No Iterations 2
time step continuity errors : sum local = 0.00135361, global = -9.44331e-18, cumulative = 1.35739e-16
DILUPBiCGStab:  Solving for omega, Initial residual = 6.07309e-05, Final residual = 2.77458e-06, No Iterations 1
DILUPBiCGStab:  Solving for k, Initial residual = 0.00744923, Final residual = 0.000240283, No Iterations 1
ExecutionTime = 80.1904 s  ClockTime = 81 s

Time = 105s

DILUPBiCGStab:  Solving for h, Initial residual = 0.00199559, Final residual = 7.90194e-06, No Iterations 1
GAMG:  Solving for p_rgh, Initial residual = 0.00359423, Final residual = 1.71301e-05, No Iterations 2
time step continuity errors : sum local = 0.00133983, global = -1.03355e-17, cumulative = 1.25404e-16
DILUPBiCGStab:  Solving for omega, Initial residual = 6.01656e-05, Final residual = 2.59732e-06, No Iterations 1
DILUPBiCGStab:  Solving for k, Initial residual = 0.0073835, Final residual = 0.000235223, No Iterations 1
ExecutionTime = 80.8486 s  ClockTime = 82 s

Time = 106s

DILUPBiCGStab:  Solving for h, Initial residual = 0.00198104, Final residual = 7.79304e-06, No Iterations 1
GAMG:  Solving for p_rgh, Initial residual = 0.00357719, Final residual = 1.7469e-05, No Iterations 2
time step continuity errors : sum local = 0.00136564, global = 1.2555e-17, cumulative = 1.37959e-16
DILUPBiCGStab:  Solving for omega, Initial residual = 6.01536e-05, Final residual = 2.71536e-06, No Iterations 1
DILUPBiCGStab:  Solving for k, Initial residual = 0.00726789, Final residual = 0.000229752, No Iterations 1
ExecutionTime = 81.6169 s  ClockTime = 83 s

Time = 107s

DILUPBiCGStab:  Solving for h, Initial residual = 0.00196543, Final residual = 7.76054e-06, No Iterations 1
GAMG:  Solving for p_rgh, Initial residual = 0.00348974, Final residual = 1.82725e-05, No Iterations 2
time step continuity errors : sum local = 0.00142903, global = 7.16064e-17, cumulative = 2.09565e-16
DILUPBiCGStab:  Solving for omega, Initial residual = 6.00348e-05, Final residual = 2.55897e-06, No Iterations 1
DILUPBiCGStab:  Solving for k, Initial residual = 0.00721013, Final residual = 0.000226695, No Iterations 1
ExecutionTime = 82.2421 s  ClockTime = 83 s

Time = 108s

DILUPBiCGStab:  Solving for h, Initial residual = 0.00195037, Final residual = 7.68651e-06, No Iterations 1
GAMG:  Solving for p_rgh, Initial residual = 0.00344384, Final residual = 1.89646e-05, No Iterations 2
time step continuity errors : sum local = 0.00148766, global = 2.72276e-17, cumulative = 2.36793e-16
DILUPBiCGStab:  Solving for omega, Initial residual = 5.89737e-05, Final residual = 2.74802e-06, No Iterations 1
DILUPBiCGStab:  Solving for k, Initial residual = 0.00716929, Final residual = 0.000229061, No Iterations 1
ExecutionTime = 82.976 s  ClockTime = 84 s

Time = 109s

DILUPBiCGStab:  Solving for h, Initial residual = 0.00193499, Final residual = 7.63866e-06, No Iterations 1
GAMG:  Solving for p_rgh, Initial residual = 0.00342968, Final residual = 1.95926e-05, No Iterations 2
time step continuity errors : sum local = 0.00153464, global = 1.54836e-17, cumulative = 2.52277e-16
DILUPBiCGStab:  Solving for omega, Initial residual = 5.85425e-05, Final residual = 2.60633e-06, No Iterations 1
DILUPBiCGStab:  Solving for k, Initial residual = 0.00710257, Final residual = 0.000223031, No Iterations 1
ExecutionTime = 83.5124 s  ClockTime = 85 s

Time = 110s

DILUPBiCGStab:  Solving for h, Initial residual = 0.00192135, Final residual = 7.55096e-06, No Iterations 1
GAMG:  Solving for p_rgh, Initial residual = 0.00341416, Final residual = 1.99156e-05, No Iterations 2
time step continuity errors : sum local = 0.0015552, global = 5.29067e-18, cumulative = 2.57567e-16
DILUPBiCGStab:  Solving for omega, Initial residual = 5.84926e-05, Final residual = 2.72489e-06, No Iterations 1
DILUPBiCGStab:  Solving for k, Initial residual = 0.00702117, Final residual = 0.000221488, No Iterations 1
ExecutionTime = 84.2131 s  ClockTime = 85 s

Time = 111s

DILUPBiCGStab:  Solving for h, Initial residual = 0.00190599, Final residual = 7.52553e-06, No Iterations 1
GAMG:  Solving for p_rgh, Initial residual = 0.00337243, Final residual = 1.99662e-05, No Iterations 2
time step continuity errors : sum local = 0.00155719, global = -3.46357e-17, cumulative = 2.22932e-16
DILUPBiCGStab:  Solving for omega, Initial residual = 5.81981e-05, Final residual = 2.51737e-06, No Iterations 1
DILUPBiCGStab:  Solving for k, Initial residual = 0.00695433, Final residual = 0.000215479, No Iterations 1
ExecutionTime = 84.9132 s  ClockTime = 86 s

Time = 112s

DILUPBiCGStab:  Solving for h, Initial residual = 0.0018926, Final residual = 7.43682e-06, No Iterations 1
GAMG:  Solving for p_rgh, Initial residual = 0.00335175, Final residual = 1.98317e-05, No Iterations 2
time step continuity errors : sum local = 0.00154294, global = -2.18694e-18, cumulative = 2.20745e-16
DILUPBiCGStab:  Solving for omega, Initial residual = 5.74168e-05, Final residual = 2.62953e-06, No Iterations 1
DILUPBiCGStab:  Solving for k, Initial residual = 0.00689263, Final residual = 0.000212464, No Iterations 1
ExecutionTime = 85.5994 s  ClockTime = 87 s

Time = 113s

DILUPBiCGStab:  Solving for h, Initial residual = 0.00187769, Final residual = 7.38853e-06, No Iterations 1
GAMG:  Solving for p_rgh, Initial residual = 0.00330658, Final residual = 1.94526e-05, No Iterations 2
time step continuity errors : sum local = 0.00151237, global = 1.24856e-17, cumulative = 2.3323e-16
DILUPBiCGStab:  Solving for omega, Initial residual = 5.74322e-05, Final residual = 2.5961e-06, No Iterations 1
DILUPBiCGStab:  Solving for k, Initial residual = 0.00686553, Final residual = 0.000210211, No Iterations 1
ExecutionTime = 86.3935 s  ClockTime = 88 s

Time = 114s

DILUPBiCGStab:  Solving for h, Initial residual = 0.00186405, Final residual = 7.31476e-06, No Iterations 1
GAMG:  Solving for p_rgh, Initial residual = 0.00326919, Final residual = 1.87901e-05, No Iterations 2
time step continuity errors : sum local = 0.00146324, global = -6.90182e-18, cumulative = 2.26328e-16
DILUPBiCGStab:  Solving for omega, Initial residual = 5.69914e-05, Final residual = 2.74867e-06, No Iterations 1
DILUPBiCGStab:  Solving for k, Initial residual = 0.00678955, Final residual = 0.000209184, No Iterations 1
ExecutionTime = 87.1393 s  ClockTime = 88 s

Time = 115s

DILUPBiCGStab:  Solving for h, Initial residual = 0.0018499, Final residual = 7.26785e-06, No Iterations 1
GAMG:  Solving for p_rgh, Initial residual = 0.00323179, Final residual = 1.79915e-05, No Iterations 2
time step continuity errors : sum local = 0.00139864, global = 2.08563e-17, cumulative = 2.47185e-16
DILUPBiCGStab:  Solving for omega, Initial residual = 5.69945e-05, Final residual = 2.58749e-06, No Iterations 1
DILUPBiCGStab:  Solving for k, Initial residual = 0.00675076, Final residual = 0.000205174, No Iterations 1
ExecutionTime = 87.7414 s  ClockTime = 89 s

Time = 116s

DILUPBiCGStab:  Solving for h, Initial residual = 0.00183611, Final residual = 7.20573e-06, No Iterations 1
GAMG:  Solving for p_rgh, Initial residual = 0.00320997, Final residual = 1.69892e-05, No Iterations 2
time step continuity errors : sum local = 0.00132299, global = -4.61443e-17, cumulative = 2.0104e-16
DILUPBiCGStab:  Solving for omega, Initial residual = 5.65357e-05, Final residual = 2.70992e-06, No Iterations 1
DILUPBiCGStab:  Solving for k, Initial residual = 0.00667072, Final residual = 0.000200684, No Iterations 1
ExecutionTime = 88.4659 s  ClockTime = 90 s

Time = 117s

DILUPBiCGStab:  Solving for h, Initial residual = 0.00182357, Final residual = 7.18288e-06, No Iterations 1
GAMG:  Solving for p_rgh, Initial residual = 0.00316127, Final residual = 1.59383e-05, No Iterations 2
time step continuity errors : sum local = 0.00123928, global = -1.78706e-17, cumulative = 1.8317e-16
DILUPBiCGStab:  Solving for omega, Initial residual = 5.60467e-05, Final residual = 2.56595e-06, No Iterations 1
DILUPBiCGStab:  Solving for k, Initial residual = 0.0066292, Final residual = 0.000197108, No Iterations 1
ExecutionTime = 89.1587 s  ClockTime = 90 s

Time = 118s

DILUPBiCGStab:  Solving for h, Initial residual = 0.00181055, Final residual = 7.11438e-06, No Iterations 1
GAMG:  Solving for p_rgh, Initial residual = 0.00313132, Final residual = 1.48701e-05, No Iterations 2
time step continuity errors : sum local = 0.001159, global = -2.34233e-17, cumulative = 1.59747e-16
DILUPBiCGStab:  Solving for omega, Initial residual = 5.57723e-05, Final residual = 2.59185e-06, No Iterations 1
DILUPBiCGStab:  Solving for k, Initial residual = 0.00657475, Final residual = 0.000195716, No Iterations 1
ExecutionTime = 89.8758 s  ClockTime = 91 s

Time = 119s

DILUPBiCGStab:  Solving for h, Initial residual = 0.00179894, Final residual = 7.10084e-06, No Iterations 1
GAMG:  Solving for p_rgh, Initial residual = 0.00309053, Final residual = 1.41011e-05, No Iterations 2
time step continuity errors : sum local = 0.00110047, global = 6.59459e-18, cumulative = 1.66341e-16
DILUPBiCGStab:  Solving for omega, Initial residual = 5.57474e-05, Final residual = 2.49495e-06, No Iterations 1
DILUPBiCGStab:  Solving for k, Initial residual = 0.00657176, Final residual = 0.00019451, No Iterations 1
ExecutionTime = 90.4737 s  ClockTime = 92 s

Time = 120s

DILUPBiCGStab:  Solving for h, Initial residual = 0.00178535, Final residual = 7.02487e-06, No Iterations 1
GAMG:  Solving for p_rgh, Initial residual = 0.00306291, Final residual = 1.36966e-05, No Iterations 2
time step continuity errors : sum local = 0.00106566, global = 1.15639e-17, cumulative = 1.77905e-16
DILUPBiCGStab:  Solving for omega, Initial residual = 5.61242e-05, Final residual = 2.64751e-06, No Iterations 1
DILUPBiCGStab:  Solving for k, Initial residual = 0.00656517, Final residual = 0.000196894, No Iterations 1
ExecutionTime = 91.1453 s  ClockTime = 92 s

Time = 121s

DILUPBiCGStab:  Solving for h, Initial residual = 0.00177266, Final residual = 7.00112e-06, No Iterations 1
GAMG:  Solving for p_rgh, Initial residual = 0.00302499, Final residual = 1.36314e-05, No Iterations 2
time step continuity errors : sum local = 0.00106228, global = 1.36076e-17, cumulative = 1.91513e-16
DILUPBiCGStab:  Solving for omega, Initial residual = 5.58333e-05, Final residual = 2.64111e-06, No Iterations 1
DILUPBiCGStab:  Solving for k, Initial residual = 0.00654061, Final residual = 0.00019316, No Iterations 1
ExecutionTime = 91.8329 s  ClockTime = 93 s

Time = 122s

DILUPBiCGStab:  Solving for h, Initial residual = 0.00176068, Final residual = 6.93149e-06, No Iterations 1
GAMG:  Solving for p_rgh, Initial residual = 0.00297909, Final residual = 1.35041e-05, No Iterations 2
time step continuity errors : sum local = 0.00105027, global = -1.2446e-17, cumulative = 1.79067e-16
DILUPBiCGStab:  Solving for omega, Initial residual = 5.56096e-05, Final residual = 2.63406e-06, No Iterations 1
DILUPBiCGStab:  Solving for k, Initial residual = 0.00644066, Final residual = 0.000184192, No Iterations 1
ExecutionTime = 92.9445 s  ClockTime = 93 s

Time = 123s

DILUPBiCGStab:  Solving for h, Initial residual = 0.00174935, Final residual = 6.90819e-06, No Iterations 1
GAMG:  Solving for p_rgh, Initial residual = 0.00293922, Final residual = 1.32315e-05, No Iterations 2
time step continuity errors : sum local = 0.00103022, global = -2.16972e-17, cumulative = 1.57369e-16
DILUPBiCGStab:  Solving for omega, Initial residual = 5.55079e-05, Final residual = 2.63145e-06, No Iterations 1
DILUPBiCGStab:  Solving for k, Initial residual = 0.00640885, Final residual = 0.00018319, No Iterations 1
ExecutionTime = 93.9222 s  ClockTime = 94 s

Time = 124s

DILUPBiCGStab:  Solving for h, Initial residual = 0.00173626, Final residual = 6.81435e-06, No Iterations 1
GAMG:  Solving for p_rgh, Initial residual = 0.00292678, Final residual = 1.2899e-05, No Iterations 2
time step continuity errors : sum local = 0.00100432, global = 6.3746e-18, cumulative = 1.63744e-16
DILUPBiCGStab:  Solving for omega, Initial residual = 5.59684e-05, Final residual = 2.66604e-06, No Iterations 1
DILUPBiCGStab:  Solving for k, Initial residual = 0.00639925, Final residual = 0.000184808, No Iterations 1
ExecutionTime = 94.7408 s  ClockTime = 95 s

Time = 125s

DILUPBiCGStab:  Solving for h, Initial residual = 0.00172405, Final residual = 6.79484e-06, No Iterations 1
GAMG:  Solving for p_rgh, Initial residual = 0.00289406, Final residual = 1.28394e-05, No Iterations 2
time step continuity errors : sum local = 0.00100027, global = -7.7793e-19, cumulative = 1.62966e-16
DILUPBiCGStab:  Solving for omega, Initial residual = 5.54237e-05, Final residual = 2.60684e-06, No Iterations 1
DILUPBiCGStab:  Solving for k, Initial residual = 0.00638337, Final residual = 0.000184536, No Iterations 1
ExecutionTime = 95.5071 s  ClockTime = 96 s

Time = 126s

DILUPBiCGStab:  Solving for h, Initial residual = 0.00171211, Final residual = 6.73031e-06, No Iterations 1
GAMG:  Solving for p_rgh, Initial residual = 0.00285846, Final residual = 1.30386e-05, No Iterations 2
time step continuity errors : sum local = 0.00101581, global = 4.73087e-18, cumulative = 1.67697e-16
DILUPBiCGStab:  Solving for omega, Initial residual = 5.50256e-05, Final residual = 2.72149e-06, No Iterations 1
DILUPBiCGStab:  Solving for k, Initial residual = 0.00634278, Final residual = 0.00018396, No Iterations 1
ExecutionTime = 96.4599 s  ClockTime = 97 s

Time = 127s

DILUPBiCGStab:  Solving for h, Initial residual = 0.00170162, Final residual = 6.68213e-06, No Iterations 1
GAMG:  Solving for p_rgh, Initial residual = 0.00280715, Final residual = 1.29706e-05, No Iterations 2
time step continuity errors : sum local = 0.00100886, global = 6.65849e-18, cumulative = 1.74355e-16
DILUPBiCGStab:  Solving for omega, Initial residual = 5.49817e-05, Final residual = 2.68593e-06, No Iterations 1
DILUPBiCGStab:  Solving for k, Initial residual = 0.00631623, Final residual = 0.000181284, No Iterations 1
ExecutionTime = 97.1737 s  ClockTime = 98 s

Time = 128s

DILUPBiCGStab:  Solving for h, Initial residual = 0.00169002, Final residual = 6.61225e-06, No Iterations 1
GAMG:  Solving for p_rgh, Initial residual = 0.00278955, Final residual = 1.16366e-05, No Iterations 2
time step continuity errors : sum local = 0.000906538, global = -3.40261e-17, cumulative = 1.40329e-16
DILUPBiCGStab:  Solving for omega, Initial residual = 5.46313e-05, Final residual = 2.80837e-06, No Iterations 1
DILUPBiCGStab:  Solving for k, Initial residual = 0.00628692, Final residual = 0.000181455, No Iterations 1
ExecutionTime = 98.0413 s  ClockTime = 99 s

Time = 129s

DILUPBiCGStab:  Solving for h, Initial residual = 0.00167882, Final residual = 6.58919e-06, No Iterations 1
GAMG:  Solving for p_rgh, Initial residual = 0.00272975, Final residual = 1.04948e-05, No Iterations 2
time step continuity errors : sum local = 0.000818766, global = -9.00948e-18, cumulative = 1.3132e-16
DILUPBiCGStab:  Solving for omega, Initial residual = 5.45534e-05, Final residual = 2.72127e-06, No Iterations 1
DILUPBiCGStab:  Solving for k, Initial residual = 0.00629037, Final residual = 0.000182906, No Iterations 1
ExecutionTime = 98.6979 s  ClockTime = 99 s

Time = 130s

DILUPBiCGStab:  Solving for h, Initial residual = 0.00166777, Final residual = 6.52364e-06, No Iterations 1
GAMG:  Solving for p_rgh, Initial residual = 0.00270791, Final residual = 1.04743e-05, No Iterations 2
time step continuity errors : sum local = 0.000817163, global = -1.79182e-17, cumulative = 1.13402e-16
DILUPBiCGStab:  Solving for omega, Initial residual = 5.41753e-05, Final residual = 2.87528e-06, No Iterations 1
DILUPBiCGStab:  Solving for k, Initial residual = 0.00625128, Final residual = 0.000183776, No Iterations 1
ExecutionTime = 99.344 s  ClockTime = 100 s

Time = 131s

[...]

DILUPBiCGStab:  Solving for h, Initial residual = 0.000474064, Final residual = 1.04543e-06, No Iterations 1
GAMG:  Solving for p_rgh, Initial residual = 0.000410032, Final residual = 1.01005e-06, No Iterations 2
time step continuity errors : sum local = 0.000114278, global = -1.94003e-17, cumulative = -7.82154e-17
DILUPBiCGStab:  Solving for omega, Initial residual = 1.11938e-05, Final residual = 4.12893e-07, No Iterations 1
DILUPBiCGStab:  Solving for k, Initial residual = 0.00062474, Final residual = 1.42419e-05, No Iterations 1
ExecutionTime = 555.494 s  ClockTime = 557 s

Time = 800s

DILUPBiCGStab:  Solving for h, Initial residual = 0.000473698, Final residual = 1.04357e-06, No Iterations 1
GAMG:  Solving for p_rgh, Initial residual = 0.000410639, Final residual = 1.00923e-06, No Iterations 2
time step continuity errors : sum local = 0.000114193, global = 7.95996e-18, cumulative = -7.02554e-17
DILUPBiCGStab:  Solving for omega, Initial residual = 1.11223e-05, Final residual = 4.15877e-07, No Iterations 1
DILUPBiCGStab:  Solving for k, Initial residual = 0.000618685, Final residual = 1.28896e-05, No Iterations 1
ExecutionTime = 556.988 s  ClockTime = 558 s

Time = 801s

DILUPBiCGStab:  Solving for h, Initial residual = 0.00047339, Final residual = 1.04089e-06, No Iterations 1
GAMG:  Solving for p_rgh, Initial residual = 0.000410766, Final residual = 1.01058e-06, No Iterations 2
time step continuity errors : sum local = 0.000114285, global = 1.18742e-17, cumulative = -5.83812e-17
DILUPBiCGStab:  Solving for omega, Initial residual = 1.1138e-05, Final residual = 4.02682e-07, No Iterations 1
DILUPBiCGStab:  Solving for k, Initial residual = 0.000627782, Final residual = 1.41311e-05, No Iterations 1
ExecutionTime = 557.651 s  ClockTime = 559 s

Time = 802s

DILUPBiCGStab:  Solving for h, Initial residual = 0.000473146, Final residual = 1.04024e-06, No Iterations 1
GAMG:  Solving for p_rgh, Initial residual = 0.000412684, Final residual = 1.00754e-06, No Iterations 2
time step continuity errors : sum local = 0.000114016, global = 2.64306e-17, cumulative = -3.19506e-17
DILUPBiCGStab:  Solving for omega, Initial residual = 1.11905e-05, Final residual = 4.25503e-07, No Iterations 1
DILUPBiCGStab:  Solving for k, Initial residual = 0.000623049, Final residual = 1.34457e-05, No Iterations 1
ExecutionTime = 558.186 s  ClockTime = 560 s

Time = 803s

DILUPBiCGStab:  Solving for h, Initial residual = 0.000472933, Final residual = 1.04038e-06, No Iterations 1
GAMG:  Solving for p_rgh, Initial residual = 0.000412862, Final residual = 1.00956e-06, No Iterations 2
time step continuity errors : sum local = 0.000114178, global = -9.22701e-18, cumulative = -4.11777e-17
DILUPBiCGStab:  Solving for omega, Initial residual = 1.11333e-05, Final residual = 4.00992e-07, No Iterations 1
DILUPBiCGStab:  Solving for k, Initial residual = 0.000622756, Final residual = 1.3619e-05, No Iterations 1
ExecutionTime = 558.833 s  ClockTime = 560 s

Time = 804s

DILUPBiCGStab:  Solving for h, Initial residual = 0.000472791, Final residual = 1.04374e-06, No Iterations 1
GAMG:  Solving for p_rgh, Initial residual = 0.000412768, Final residual = 1.0082e-06, No Iterations 2
time step continuity errors : sum local = 0.000114056, global = 4.95944e-18, cumulative = -3.62182e-17
DILUPBiCGStab:  Solving for omega, Initial residual = 1.09731e-05, Final residual = 4.0694e-07, No Iterations 1
DILUPBiCGStab:  Solving for k, Initial residual = 0.000616586, Final residual = 1.26093e-05, No Iterations 1
ExecutionTime = 559.488 s  ClockTime = 561 s

Time = 805s

DILUPBiCGStab:  Solving for h, Initial residual = 0.000472581, Final residual = 1.04267e-06, No Iterations 1
GAMG:  Solving for p_rgh, Initial residual = 0.000408769, Final residual = 1.00693e-06, No Iterations 2
time step continuity errors : sum local = 0.000113866, global = 4.53154e-17, cumulative = 9.09714e-18
DILUPBiCGStab:  Solving for omega, Initial residual = 1.09795e-05, Final residual = 4.00546e-07, No Iterations 1
DILUPBiCGStab:  Solving for k, Initial residual = 0.000617671, Final residual = 1.34417e-05, No Iterations 1
ExecutionTime = 560.498 s  ClockTime = 562 s

Time = 806s

DILUPBiCGStab:  Solving for h, Initial residual = 0.000472318, Final residual = 1.04299e-06, No Iterations 1
GAMG:  Solving for p_rgh, Initial residual = 0.000409569, Final residual = 1.00404e-06, No Iterations 2
time step continuity errors : sum local = 0.000113541, global = 1.02821e-17, cumulative = 1.93792e-17
DILUPBiCGStab:  Solving for omega, Initial residual = 1.09536e-05, Final residual = 4.15019e-07, No Iterations 1
DILUPBiCGStab:  Solving for k, Initial residual = 0.000616487, Final residual = 1.30538e-05, No Iterations 1
ExecutionTime = 561.184 s  ClockTime = 563 s

Time = 807s

DILUPBiCGStab:  Solving for h, Initial residual = 0.000472201, Final residual = 1.04596e-06, No Iterations 1
GAMG:  Solving for p_rgh, Initial residual = 0.000408332, Final residual = 9.95953e-07, No Iterations 2
time step continuity errors : sum local = 0.000112602, global = -2.46464e-17, cumulative = -5.26723e-18
DILUPBiCGStab:  Solving for omega, Initial residual = 1.09658e-05, Final residual = 4.0222e-07, No Iterations 1
DILUPBiCGStab:  Solving for k, Initial residual = 0.00061803, Final residual = 1.32408e-05, No Iterations 1
ExecutionTime = 561.828 s  ClockTime = 563 s

Time = 808s

DILUPBiCGStab:  Solving for h, Initial residual = 0.000472221, Final residual = 1.04928e-06, No Iterations 1
GAMG:  Solving for p_rgh, Initial residual = 0.000407538, Final residual = 9.96914e-07, No Iterations 2
time step continuity errors : sum local = 0.000112644, global = -4.55452e-18, cumulative = -9.82174e-18
DILUPBiCGStab:  Solving for omega, Initial residual = 1.08673e-05, Final residual = 4.02512e-07, No Iterations 1
DILUPBiCGStab:  Solving for k, Initial residual = 0.000611863, Final residual = 1.22203e-05, No Iterations 1
ExecutionTime = 562.517 s  ClockTime = 564 s

Time = 809s

DILUPBiCGStab:  Solving for h, Initial residual = 0.000471958, Final residual = 1.05014e-06, No Iterations 1
GAMG:  Solving for p_rgh, Initial residual = 0.000402997, Final residual = 9.92254e-07, No Iterations 2
time step continuity errors : sum local = 0.000112134, global = -2.8992e-17, cumulative = -3.88138e-17
DILUPBiCGStab:  Solving for omega, Initial residual = 1.08755e-05, Final residual = 4.02863e-07, No Iterations 1
DILUPBiCGStab:  Solving for k, Initial residual = 0.000615997, Final residual = 1.2963e-05, No Iterations 1
ExecutionTime = 563.128 s  ClockTime = 565 s

Time = 810s

DILUPBiCGStab:  Solving for h, Initial residual = 0.000471862, Final residual = 1.05296e-06, No Iterations 1
GAMG:  Solving for p_rgh, Initial residual = 0.000401746, Final residual = 9.92335e-07, No Iterations 2
time step continuity errors : sum local = 0.000112212, global = 2.31671e-17, cumulative = -1.56467e-17
DILUPBiCGStab:  Solving for omega, Initial residual = 1.08497e-05, Final residual = 4.06148e-07, No Iterations 1
DILUPBiCGStab:  Solving for k, Initial residual = 0.000611607, Final residual = 1.25845e-05, No Iterations 1
ExecutionTime = 563.907 s  ClockTime = 566 s

Time = 811s

DILUPBiCGStab:  Solving for h, Initial residual = 0.000471663, Final residual = 1.05502e-06, No Iterations 1
GAMG:  Solving for p_rgh, Initial residual = 0.000401384, Final residual = 9.89935e-07, No Iterations 2
time step continuity errors : sum local = 0.000111959, global = -7.8853e-18, cumulative = -2.3532e-17
DILUPBiCGStab:  Solving for omega, Initial residual = 1.09707e-05, Final residual = 4.08825e-07, No Iterations 1
DILUPBiCGStab:  Solving for k, Initial residual = 0.000612645, Final residual = 1.26916e-05, No Iterations 1
ExecutionTime = 564.561 s  ClockTime = 566 s

Time = 812s

DILUPBiCGStab:  Solving for h, Initial residual = 0.000471403, Final residual = 1.05582e-06, No Iterations 1
GAMG:  Solving for p_rgh, Initial residual = 0.000402423, Final residual = 9.88213e-07, No Iterations 2
time step continuity errors : sum local = 0.000111765, global = -2.41406e-17, cumulative = -4.76726e-17
DILUPBiCGStab:  Solving for omega, Initial residual = 1.09287e-05, Final residual = 4.06641e-07, No Iterations 1
DILUPBiCGStab:  Solving for k, Initial residual = 0.00060916, Final residual = 1.21948e-05, No Iterations 1
ExecutionTime = 565.247 s  ClockTime = 567 s

Time = 813s

DILUPBiCGStab:  Solving for h, Initial residual = 0.00047109, Final residual = 1.05416e-06, No Iterations 1
GAMG:  Solving for p_rgh, Initial residual = 0.000401251, Final residual = 9.86567e-07, No Iterations 2
time step continuity errors : sum local = 0.000111549, global = 1.01036e-17, cumulative = -3.7569e-17
DILUPBiCGStab:  Solving for omega, Initial residual = 1.09557e-05, Final residual = 4.0249e-07, No Iterations 1
DILUPBiCGStab:  Solving for k, Initial residual = 0.000610648, Final residual = 1.23074e-05, No Iterations 1
ExecutionTime = 565.813 s  ClockTime = 567 s

Time = 814s

DILUPBiCGStab:  Solving for h, Initial residual = 0.000471033, Final residual = 1.05648e-06, No Iterations 1
GAMG:  Solving for p_rgh, Initial residual = 0.00040429, Final residual = 9.92449e-07, No Iterations 2
time step continuity errors : sum local = 0.000112291, global = -4.87248e-17, cumulative = -8.62938e-17
DILUPBiCGStab:  Solving for omega, Initial residual = 1.09097e-05, Final residual = 4.14224e-07, No Iterations 1
DILUPBiCGStab:  Solving for k, Initial residual = 0.000604521, Final residual = 1.2065e-05, No Iterations 1
ExecutionTime = 566.485 s  ClockTime = 567 s

Time = 815s

DILUPBiCGStab:  Solving for h, Initial residual = 0.000470923, Final residual = 1.05175e-06, No Iterations 1
GAMG:  Solving for p_rgh, Initial residual = 0.000408322, Final residual = 9.98768e-07, No Iterations 2
time step continuity errors : sum local = 0.000113032, global = -3.10498e-17, cumulative = -1.17344e-16
DILUPBiCGStab:  Solving for omega, Initial residual = 1.08424e-05, Final residual = 4.0009e-07, No Iterations 1
DILUPBiCGStab:  Solving for k, Initial residual = 0.0006044, Final residual = 1.2273e-05, No Iterations 1
ExecutionTime = 567.068 s  ClockTime = 568 s

Time = 816s

DILUPBiCGStab:  Solving for h, Initial residual = 0.000470795, Final residual = 1.04997e-06, No Iterations 1
GAMG:  Solving for p_rgh, Initial residual = 0.000409514, Final residual = 9.89927e-07, No Iterations 2
time step continuity errors : sum local = 0.000112012, global = -3.72283e-18, cumulative = -1.21066e-16
DILUPBiCGStab:  Solving for omega, Initial residual = 1.07621e-05, Final residual = 4.03787e-07, No Iterations 1
DILUPBiCGStab:  Solving for k, Initial residual = 0.000604068, Final residual = 1.2598e-05, No Iterations 1
ExecutionTime = 567.891 s  ClockTime = 569 s

Time = 817s

DILUPBiCGStab:  Solving for h, Initial residual = 0.000470801, Final residual = 1.05178e-06, No Iterations 1
GAMG:  Solving for p_rgh, Initial residual = 0.000408328, Final residual = 9.94247e-07, No Iterations 2
time step continuity errors : sum local = 0.000112458, global = 2.72752e-18, cumulative = -1.18339e-16
DILUPBiCGStab:  Solving for omega, Initial residual = 1.06945e-05, Final residual = 3.96376e-07, No Iterations 1
DILUPBiCGStab:  Solving for k, Initial residual = 0.000605686, Final residual = 1.28397e-05, No Iterations 1
ExecutionTime = 568.412 s  ClockTime = 569 s

Time = 818s

DILUPBiCGStab:  Solving for h, Initial residual = 0.000470616, Final residual = 1.04786e-06, No Iterations 1
GAMG:  Solving for p_rgh, Initial residual = 0.000408032, Final residual = 9.94045e-07, No Iterations 2
time step continuity errors : sum local = 0.000112484, global = -3.36919e-17, cumulative = -1.52031e-16
DILUPBiCGStab:  Solving for omega, Initial residual = 1.07483e-05, Final residual = 4.06711e-07, No Iterations 1
DILUPBiCGStab:  Solving for k, Initial residual = 0.000602554, Final residual = 1.31626e-05, No Iterations 1
ExecutionTime = 569.007 s  ClockTime = 570 s

Time = 819s

DILUPBiCGStab:  Solving for h, Initial residual = 0.000470605, Final residual = 1.05119e-06, No Iterations 1
GAMG:  Solving for p_rgh, Initial residual = 0.000409136, Final residual = 1.00055e-06, No Iterations 2
time step continuity errors : sum local = 0.000113231, global = 2.0627e-17, cumulative = -1.31404e-16
DILUPBiCGStab:  Solving for omega, Initial residual = 1.07135e-05, Final residual = 3.98082e-07, No Iterations 1
DILUPBiCGStab:  Solving for k, Initial residual = 0.000599666, Final residual = 1.25187e-05, No Iterations 1
ExecutionTime = 569.632 s  ClockTime = 571 s

Time = 820s

DILUPBiCGStab:  Solving for h, Initial residual = 0.000470447, Final residual = 1.05272e-06, No Iterations 1
GAMG:  Solving for p_rgh, Initial residual = 0.000408387, Final residual = 1.00792e-06, No Iterations 2
time step continuity errors : sum local = 0.000114059, global = -2.78897e-17, cumulative = -1.59293e-16
DILUPBiCGStab:  Solving for omega, Initial residual = 1.06254e-05, Final residual = 3.99327e-07, No Iterations 1
DILUPBiCGStab:  Solving for k, Initial residual = 0.000596674, Final residual = 1.26414e-05, No Iterations 1
ExecutionTime = 570.293 s  ClockTime = 571 s

Time = 821s

DILUPBiCGStab:  Solving for h, Initial residual = 0.000470384, Final residual = 1.05646e-06, No Iterations 1
GAMG:  Solving for p_rgh, Initial residual = 0.000408619, Final residual = 1.01259e-06, No Iterations 2
time step continuity errors : sum local = 0.000114578, global = -1.03498e-17, cumulative = -1.69643e-16
DILUPBiCGStab:  Solving for omega, Initial residual = 1.06346e-05, Final residual = 3.94511e-07, No Iterations 1
DILUPBiCGStab:  Solving for k, Initial residual = 0.0005962, Final residual = 1.20688e-05, No Iterations 1
ExecutionTime = 570.975 s  ClockTime = 572 s

Time = 822s

DILUPBiCGStab:  Solving for h, Initial residual = 0.000470262, Final residual = 1.05732e-06, No Iterations 1
GAMG:  Solving for p_rgh, Initial residual = 0.000408746, Final residual = 1.01182e-06, No Iterations 2
time step continuity errors : sum local = 0.000114454, global = 3.47724e-17, cumulative = -1.34871e-16
DILUPBiCGStab:  Solving for omega, Initial residual = 1.0551e-05, Final residual = 3.97868e-07, No Iterations 1
DILUPBiCGStab:  Solving for k, Initial residual = 0.000600393, Final residual = 1.30073e-05, No Iterations 1
ExecutionTime = 571.592 s  ClockTime = 573 s

Time = 823s

DILUPBiCGStab:  Solving for h, Initial residual = 0.000470039, Final residual = 1.06151e-06, No Iterations 1
GAMG:  Solving for p_rgh, Initial residual = 0.000408835, Final residual = 1.019e-06, No Iterations 2
time step continuity errors : sum local = 0.000115191, global = 1.8529e-17, cumulative = -1.16342e-16
DILUPBiCGStab:  Solving for omega, Initial residual = 1.05304e-05, Final residual = 3.93765e-07, No Iterations 1
DILUPBiCGStab:  Solving for k, Initial residual = 0.000602249, Final residual = 1.32371e-05, No Iterations 1
ExecutionTime = 572.153 s  ClockTime = 573 s

Time = 824s

DILUPBiCGStab:  Solving for h, Initial residual = 0.000469884, Final residual = 1.06381e-06, No Iterations 1
GAMG:  Solving for p_rgh, Initial residual = 0.000407596, Final residual = 1.023e-06, No Iterations 2
time step continuity errors : sum local = 0.000115673, global = -2.46744e-18, cumulative = -1.18809e-16
DILUPBiCGStab:  Solving for omega, Initial residual = 1.04891e-05, Final residual = 3.94813e-07, No Iterations 1
DILUPBiCGStab:  Solving for k, Initial residual = 0.00059059, Final residual = 1.22335e-05, No Iterations 1
ExecutionTime = 572.717 s  ClockTime = 574 s

Time = 825s

DILUPBiCGStab:  Solving for h, Initial residual = 0.000469713, Final residual = 1.06684e-06, No Iterations 1
GAMG:  Solving for p_rgh, Initial residual = 0.000408937, Final residual = 1.02242e-06, No Iterations 2
time step continuity errors : sum local = 0.000115617, global = -1.41988e-17, cumulative = -1.33008e-16
DILUPBiCGStab:  Solving for omega, Initial residual = 1.05421e-05, Final residual = 3.97937e-07, No Iterations 1
DILUPBiCGStab:  Solving for k, Initial residual = 0.000587439, Final residual = 1.21077e-05, No Iterations 1
ExecutionTime = 573.299 s  ClockTime = 574 s

Time = 826s

DILUPBiCGStab:  Solving for h, Initial residual = 0.000469555, Final residual = 1.06632e-06, No Iterations 1
GAMG:  Solving for p_rgh, Initial residual = 0.000407485, Final residual = 1.02084e-06, No Iterations 2
time step continuity errors : sum local = 0.000115505, global = 1.18091e-17, cumulative = -1.21199e-16
DILUPBiCGStab:  Solving for omega, Initial residual = 1.05511e-05, Final residual = 3.98253e-07, No Iterations 1
DILUPBiCGStab:  Solving for k, Initial residual = 0.00059336, Final residual = 1.24223e-05, No Iterations 1
ExecutionTime = 574.139 s  ClockTime = 575 s

Time = 827s

DILUPBiCGStab:  Solving for h, Initial residual = 0.000469516, Final residual = 1.06483e-06, No Iterations 1
GAMG:  Solving for p_rgh, Initial residual = 0.000407365, Final residual = 1.01781e-06, No Iterations 2
time step continuity errors : sum local = 0.00011517, global = 1.43001e-17, cumulative = -1.06899e-16
DILUPBiCGStab:  Solving for omega, Initial residual = 1.05529e-05, Final residual = 3.97912e-07, No Iterations 1
DILUPBiCGStab:  Solving for k, Initial residual = 0.000591264, Final residual = 1.25211e-05, No Iterations 1
ExecutionTime = 574.747 s  ClockTime = 576 s

Time = 828s

DILUPBiCGStab:  Solving for h, Initial residual = 0.000469409, Final residual = 1.06425e-06, No Iterations 1
GAMG:  Solving for p_rgh, Initial residual = 0.000409977, Final residual = 1.01734e-06, No Iterations 2
time step continuity errors : sum local = 0.000115084, global = 2.77179e-17, cumulative = -7.91809e-17
DILUPBiCGStab:  Solving for omega, Initial residual = 1.05096e-05, Final residual = 3.96904e-07, No Iterations 1
DILUPBiCGStab:  Solving for k, Initial residual = 0.000594046, Final residual = 1.27309e-05, No Iterations 1
ExecutionTime = 575.468 s  ClockTime = 577 s

Time = 829s

DILUPBiCGStab:  Solving for h, Initial residual = 0.000469247, Final residual = 1.06292e-06, No Iterations 1
GAMG:  Solving for p_rgh, Initial residual = 0.000410783, Final residual = 1.02365e-06, No Iterations 2
time step continuity errors : sum local = 0.000115826, global = 2.19732e-17, cumulative = -5.72077e-17
DILUPBiCGStab:  Solving for omega, Initial residual = 1.05367e-05, Final residual = 4.02764e-07, No Iterations 1
DILUPBiCGStab:  Solving for k, Initial residual = 0.000588441, Final residual = 1.23644e-05, No Iterations 1
ExecutionTime = 576.34 s  ClockTime = 577 s

Time = 830s

DILUPBiCGStab:  Solving for h, Initial residual = 0.000469123, Final residual = 1.05828e-06, No Iterations 1
GAMG:  Solving for p_rgh, Initial residual = 0.00041444, Final residual = 1.03073e-06, No Iterations 2
time step continuity errors : sum local = 0.000116637, global = -2.3148e-17, cumulative = -8.03558e-17
DILUPBiCGStab:  Solving for omega, Initial residual = 1.05001e-05, Final residual = 3.95956e-07, No Iterations 1
DILUPBiCGStab:  Solving for k, Initial residual = 0.000584799, Final residual = 1.25983e-05, No Iterations 1
ExecutionTime = 577.128 s  ClockTime = 578 s

Time = 831s

DILUPBiCGStab:  Solving for h, Initial residual = 0.000468996, Final residual = 1.05705e-06, No Iterations 1
GAMG:  Solving for p_rgh, Initial residual = 0.000415395, Final residual = 1.0334e-06, No Iterations 2
time step continuity errors : sum local = 0.000116897, global = -4.67065e-18, cumulative = -8.50264e-17
DILUPBiCGStab:  Solving for omega, Initial residual = 1.05168e-05, Final residual = 4.0478e-07, No Iterations 1
DILUPBiCGStab:  Solving for k, Initial residual = 0.00058492, Final residual = 1.29114e-05, No Iterations 1
ExecutionTime = 577.717 s  ClockTime = 579 s

Time = 832s

DILUPBiCGStab:  Solving for h, Initial residual = 0.00046892, Final residual = 1.05972e-06, No Iterations 1
GAMG:  Solving for p_rgh, Initial residual = 0.000415863, Final residual = 1.03381e-06, No Iterations 2
time step continuity errors : sum local = 0.000116898, global = -1.31972e-17, cumulative = -9.82236e-17
